APO_1K55_chimeraFH_SER.pdb
 OpenBabel08212313463D

 11 10  0  0  1  0  0  0  0  0999 V2000
   19.0840    5.6510   35.6630 N   0  0  0  0  0  0  0  0  0  0  0  0
   17.9240    6.5250   35.7290 C   0  0  2  0  0  0  0  0  0  0  0  0
   17.9050    7.5310   36.8640 C   0  0  0  0  0  0  0  0  0  0  0  0
   17.0310    8.3960   36.9020 O   0  0  0  0  0  0  0  0  0  0  0  0
   16.6420    5.7270   35.6840 C   0  0  0  0  0  0  0  0  0  0  0  0
   16.5460    5.1160   34.4100 O   0  0  0  0  0  0  0  0  0  0  0  0
   18.9340    4.8220   35.8340 H   0  0  0  0  0  0  0  0  0  0  0  0
   17.9990    7.0760   34.9340 H   0  0  0  0  0  0  0  0  0  0  0  0
   16.6370    5.0540   36.3830 H   0  0  0  0  0  0  0  0  0  0  0  0
   15.8780    6.3040   35.8410 H   0  0  0  0  0  0  0  0  0  0  0  0
   16.9350    5.5950   33.8400 H   0  0  0  0  0  0  0  0  0  0  0  0
  1  2  1  0  0  0  0
  1  7  1  0  0  0  0
  2  8  1  6  0  0  0
  2  3  1  0  0  0  0
  3  4  2  0  0  0  0
  5  2  1  0  0  0  0
  5 10  1  0  0  0  0
  5  9  1  0  0  0  0
  6  5  1  0  0  0  0
 11  6  1  0  0  0  0
M  END
>  <>
                                                                          

>  <USER>
MOD reduce.3.7.201124 H: found=0, std=0, add=1958, rem=0, adj=48          
MOD -----------------------------------------------------------------     
MOD scores for adjustable sidechains, with "set" totals for H,N and Q     
MOD "o" means original, "f" means flipped, "180deg" is methyl default     
MOD "!" flags a clash with an overlap of 0.40A or greater                 
MOD flip categories: "K"=keep, "C"=clashes, "X"=uncertain, "F"=flip       
MOD NoAdj-H: A  70 KCX HQ2 : A  70 KCX OQ2 : A  70 KCX CX  :(short bond)  
MOD NoAdj-H: A  70 KCX HN2 : A  70 KCX N   : A  69 PHE C   :(H bumps)     
MOD Set 1.1: A 243 ASN     :      amide:sc=   -2.08! C(o=-4.3!,f=-6.2!)   
MOD Set 1.2: A 245 SER OG  :   rot  140:sc=    -2.2!                      
MOD Set 2.1: A 194 THR OG1 :   rot -154:sc=   0.715                       
MOD Set 2.2: A 204 SER OG  :   rot  180:sc=   0.645                       
MOD Set 3.1: A 176 ASN     :      amide:sc=    1.05  K(o=2.6,f=-8.9!)     
MOD Set 3.2: A 189 LYS NZ  :NH3+    173:sc=    1.56   (180deg=0.312)      
MOD Set 4.1: A 181 SER OG  :   rot  180:sc=   0.248                       
MOD Set 4.2: A 184 ASN     :      amide:sc=    0.11  K(o=0.36,f=-2!)      
MOD Set 5.1: A 145 ASN     :      amide:sc=    1.36  K(o=3,f=-4.5!)       
MOD Set 5.2: A 147 SER OG A:   rot   80:sc=    1.11                       
MOD Set 5.3: A 147 SER OG B:   rot  -79:sc=   0.485                       
MOD Set 6.1: A 115 SER OG  :   rot  180:sc=    1.04                       
MOD Set 6.2: A 205 LYS NZ  :NH3+    165:sc=    1.99   (180deg=0.534)      
MOD Set 7.1: A  68 THR OG1 :   rot  -64:sc=    1.43                       
MOD Set 7.2: A 166 GLN     :      amide:sc=   0.394  K(o=1.8,f=0.67)      
MOD Set 8.1: A  47 SER OG  :   rot -130:sc=  -0.937                       
MOD Set 8.2: A  49 LYS NZ  :NH3+    180:sc=       0   (180deg=0)          
MOD Set 9.1: A  29 ASN     :      amide:sc=  -0.915  K(o=0.14,f=-4.7!)    
MOD Set 9.2: A  54 ASN     :      amide:sc=    1.06  K(o=0.14,f=-10!)     
MOD Set10.1: A  25 ASN     :      amide:sc=   0.232  K(o=1.6,f=-3.4!)     
MOD Set10.2: A  27 SER OG  :   rot  -54:sc=    1.32                       
MOD Single : A  21 SER OG  :   rot  180:sc= -0.0323                       
MOD Single : A  23 THR OG1 :   rot  180:sc=       0                       
MOD Single : A  26 THR OG1 :   rot  180:sc=       0                       
MOD Single : A  30 LYS NZ  :NH3+    180:sc=       0   (180deg=0)          
MOD Single : A  33 SER OG  :   rot  180:sc=       0                       
MOD Single : A  38 ASN     :      amide:sc= -0.0376  K(o=-0.038,f=-0.55)  
MOD Single : A  45 LYS NZ  :NH3+    180:sc=       0   (180deg=0)          
MOD Single : A  46 SER OG  :   rot  -37:sc=   0.856                       
MOD Single : A  48 SER OG  :   rot -122:sc=    1.32                       
MOD Single : A  50 SER OG  :   rot  180:sc=       0                       
MOD Single : A  53 THR OG1 :   rot   53:sc=   0.792                       
MOD Single : A  60 SER OG  :   rot  180:sc=       0                       
MOD Single : A  61 LYS NZ  :NH3+    180:sc=       0   (180deg=0)          
MOD Single : A  63 TYR OH  :   rot  180:sc=  -0.531                       
MOD Single : A  67 SER OG  :   rot  -30:sc=    1.03                       
MOD Single : A  73 ASN     :FLIP  amide:sc=  -0.104  F(o=-1.8!,f=-0.1)    
MOD Single : A  80 THR OG1 :   rot  -81:sc=   0.662                       
MOD Single : A  84 LYS NZ  :NH3+    155:sc=  -0.129   (180deg=-0.487)     
MOD Single : A  85 ASN     :      amide:sc=  -0.238  K(o=-0.24,f=-6.8!)   
MOD Single : A  87 HIS     :     no HD1:sc= -0.0117  X(o=-0.012,f=-0.31)  
MOD Single : A  88 GLN     :      amide:sc=    1.02  K(o=1,f=-5.4!)       
MOD Single : A  91 LYS NZ A:NH3+   -125:sc=   0.228   (180deg=-0.0108)    
MOD Single : A  91 LYS NZ B:NH3+    180:sc=       0   (180deg=0)          
MOD Single : A  95 LYS NZ  :NH3+    180:sc=       0   (180deg=0)          
MOD Single : A 100 LYS NZ  :NH3+    180:sc=       0   (180deg=0)          
MOD Single : A 101 GLN     :      amide:sc= -0.0958  K(o=-0.096,f=-1.3)   
MOD Single : A 107 THR OG1 :   rot  180:sc=   0.316                       
MOD Single : A 113 GLN     :      amide:sc=   0.686  K(o=0.69,f=-1.8!)    
MOD Single : A 121 GLN     :      amide:sc=   0.459  K(o=0.46,f=-1.7!)    
MOD Single : A 122 GLN     :      amide:sc=   0.786  K(o=0.79,f=-2.7!)    
MOD Single : A 133 GLN     :      amide:sc=   0.773  K(o=0.77,f=-0.24)    
MOD Single : A 134 LYS NZ  :NH3+    180:sc=       0   (180deg=0)          
MOD Single : A 135 TYR OH  :   rot  180:sc=       0                       
MOD Single : A 137 LYS NZ  :NH3+    180:sc=       0   (180deg=0)          
MOD Single : A 138 LYS NZ  :NH3+    180:sc=       0   (180deg=0)          
MOD Single : A 140 SER OG  :   rot  180:sc=       0                       
MOD Single : A 141 TYR OH  :   rot  166:sc=       0                       
MOD Single : A 143 ASN     :      amide:sc=  0.0461  K(o=0.046,f=-8.5!)   
MOD Single : A 144 GLN     :      amide:sc=  -0.365  K(o=-0.36,f=-1.5)    
MOD Single : A 152 LYS NZ  :NH3+    180:sc=       0   (180deg=0)          
MOD Single : A 158 GLN     :      amide:sc=  -0.127  X(o=-0.13,f=-0.13)   
MOD Single : A 162 SER OG  :   rot  111:sc=   0.138                       
MOD Single : A 165 ASN     :FLIP  amide:sc=   0.409  F(o=-2.1!,f=0.41)    
MOD Single : A 172 SER OG  :   rot   74:sc=  0.0372                       
MOD Single : A 174 TYR OH  :   rot   -1:sc=   0.155                       
MOD Single : A 177 LYS NZ  :NH3+    180:sc=       0   (180deg=0)          
MOD Single : A 179 SER OG  :   rot  180:sc=       0                       
MOD Single : A 182 LYS NZ  :NH3+    180:sc=       0   (180deg=0)          
MOD Single : A 185 GLN     :      amide:sc=  -0.337  K(o=-0.34,f=-2.9!)   
MOD Single : A 200 TYR OH  :   rot  180:sc=       0                       
MOD Single : A 203 HIS     :     no HE2:sc=   0.119  K(o=0.12,f=-0.66)    
MOD Single : A 206 THR OG1 :   rot  180:sc= 0.00473                       
MOD Single : A 209 SER OG  :   rot  180:sc=   0.314                       
MOD Single : A 213 THR OG1 :   rot  -69:sc=   0.363                       
MOD Single : A 215 SER OG  :   rot  180:sc=       0                       
MOD Single : A 216 ASN     :      amide:sc=-0.00476  X(o=-0.0048,f=-0.0048)
MOD Single : A 228 LYS NZ  :NH3+    158:sc=    1.17   (180deg=1.08)       
MOD Single : A 230 THR OG1 :   rot  180:sc=       0                       
MOD Single : A 233 TYR OH  :   rot  180:sc=       0                       
MOD Single : A 238 ASN     :      amide:sc=   0.309  K(o=0.31,f=-5.9!)    
MOD Single : A 246 LYS NZ  :NH3+    180:sc=       0   (180deg=0)          
MOD Single : A 251 LYS NZ  :NH3+    180:sc=       0   (180deg=0)          
MOD Single : A 252 SER OG  :   rot -130:sc=  -0.665                       
MOD Single : A 255 THR OG1 :   rot   86:sc=   0.899                       
MOD Single : A 256 LYS NZ  :NH3+    180:sc=       0   (180deg=0)          
MOD Single : A 260 SER OG  :   rot  -47:sc=    1.24                       
MOD -----------------------------------------------------------------     

>  <HEADER>
    HYDROLASE                               10-OCT-01   1K55              

>  <TITLE>
    OXA 10 CLASS D BETA-LACTAMASE AT PH 7.5                               

>  <COMPND>
    MOL_ID: 1;                                                            
   2 MOLECULE: BETA LACTAMASE OXA-10;                                     
   3 CHAIN: A, B;                                                         
   4 SYNONYM: BETA-LACTAMASE PSE-2;                                       
   5 EC: 3.5.2.6;                                                         
   6 ENGINEERED: YES;                                                     
   7 OTHER_DETAILS: RESIDUE 70 OF CHAINS A AND B, KCX ARE                 
   8 CARBAMYLATED LYSINE.;                                                
   9 MOL_ID: 2;                                                           
   0 MOLECULE: BETA LACTAMASE OXA-10;                                     
   1 CHAIN: C, D;                                                         
   2 EC: 3.5.2.6;                                                         
   3 ENGINEERED: YES;                                                     
   4 OTHER_DETAILS: RESIDUE 70 OF CHAINS C AND D EXISTS IN TWO            
   5 ALTERNATE CONFORMATIONS: KCX, CARBAMYLATED LYSINE, AND               
   6 LYSINE.                                                              

>  <SOURCE>
    MOL_ID: 1;                                                            
   2 ORGANISM_SCIENTIFIC: PSEUDOMONAS AERUGINOSA;                         
   3 ORGANISM_TAXID: 287;                                                 
   4 EXPRESSION_SYSTEM: ESCHERICHIA COLI BL21(DE3);                       
   5 EXPRESSION_SYSTEM_TAXID: 469008;                                     
   6 EXPRESSION_SYSTEM_STRAIN: BL21 DE3;                                  
   7 EXPRESSION_SYSTEM_VECTOR_TYPE: PLASMID;                              
   8 EXPRESSION_SYSTEM_PLASMID: PET24A;                                   
   9 MOL_ID: 2;                                                           
   0 ORGANISM_SCIENTIFIC: PSEUDOMONAS AERUGINOSA;                         
   1 ORGANISM_TAXID: 287;                                                 
   2 EXPRESSION_SYSTEM: ESCHERICHIA COLI BL21(DE3);                       
   3 EXPRESSION_SYSTEM_TAXID: 469008;                                     
   4 EXPRESSION_SYSTEM_STRAIN: BL21 DE3;                                  
   5 EXPRESSION_SYSTEM_VECTOR_TYPE: PLASMID;                              
   6 EXPRESSION_SYSTEM_PLASMID: PET24A                                    

>  <KEYWDS>
    BETA-LACTAMASE, ANTIBIOTIC RESISTANCE, CARBAMYLATION,                 
   2 HYDROLASE                                                            

>  <EXPDTA>
    X-RAY DIFFRACTION                                                     

>  <AUTHOR>
    D.GOLEMI,L.MAVEYRAUD,S.VAKULENKO,J.P.SAMAMA,S.MOBASHERY               

>  <REVDAT>
   3   24-FEB-09 1K55    1       VERSN                                    
   2   19-DEC-01 1K55    1       JRNL                                     
   1   07-NOV-01 1K55    0                                                

>  <JRNL>
      AUTH   D.GOLEMI,L.MAVEYRAUD,S.VAKULENKO,J.P.SAMAMA,                 
      AUTH 2 S.MOBASHERY                                                  
      TITL   CRITICAL INVOLVEMENT OF A CARBAMYLATED LYSINE IN             
      TITL 2 CATALYTIC FUNCTION OF CLASS D BETA-LACTAMASES.               
      REF    PROC.NATL.ACAD.SCI.USA        V.  98 14280 2001              
      REFN                   ISSN 0027-8424                               
      PMID   11724923                                                     
      DOI    10.1073/PNAS.241442898                                       

>  <REMARK>
   1                                                                      
   1 REFERENCE 1                                                          
   1  AUTH   L.MAVEYRAUD,D.GOLEMI,L.P.KOTRA,S.TRANIER,                    
   1  AUTH 2 S.VAKULENKO,S.MOBASHERY,J.P.SAMAMA                           
   1  TITL   INSIGHTS INTO CLASS D BETA-LACTAMASES ARE REVEALED           
   1  TITL 2 BY THE CRYSTAL STRUCTURE OF THE OXA10 ENZYME FROM            
   1  TITL 3 PSEUDOMONAS AERUGINOSA                                       
   1  REF    STRUCTURE                     V.   8  1289 2000              
   1  REFN                   ISSN 0969-2126                               
   1  DOI    10.1016/S0969-2126(00)00534-7                                
   1 REFERENCE 2                                                          
   1  AUTH   D.GOLEMI,L.MAVEYRAUD,S.VAKULENKO,S.TRANIER,                  
   1  AUTH 2 A.ISHIWATA,L.P.KOTRA,J.P.SAMAMA,S.MOBASHERY                  
   1  TITL   THE FIRST STRUCTURAL AND MECHANISTIC INSIGHTS FOR            
   1  TITL 2 CLASS D BETA-LACTAMASES: EVIDENCE FOR A NOVEL                
   1  TITL 3 CATALYTIC PROCESS FOR TURNOVER OF BETA-LACTAM                
   1  TITL 4 ANTIBIOTIC                                                   
   1  REF    J.AM.CHEM.SOC.                V. 122  6132 2000              
   1  REFN                   ISSN 0002-7863                               
   1  DOI    10.1021/JA0013881                                            
   2                                                                      
   2 RESOLUTION.    1.39 ANGSTROMS.                                       
   3                                                                      
   3 REFINEMENT.                                                          
   3   PROGRAM     : REFMAC                                               
   3   AUTHORS     : MURSHUDOV,VAGIN,DODSON                               
   3                                                                      
   3  DATA USED IN REFINEMENT.                                            
   3   RESOLUTION RANGE HIGH (ANGSTROMS) : 1.39                           
   3   RESOLUTION RANGE LOW  (ANGSTROMS) : 53.16                          
   3   DATA CUTOFF            (SIGMA(F)) : 0.000                          
   3   COMPLETENESS FOR RANGE        (%) : 98.9                           
   3   NUMBER OF REFLECTIONS             : 215989                         
   3                                                                      
   3  FIT TO DATA USED IN REFINEMENT.                                     
   3   CROSS-VALIDATION METHOD          : THROUGHOUT                      
   3   FREE R VALUE TEST SET SELECTION  : RANDOM                          
   3   R VALUE     (WORKING + TEST SET) : 0.153                           
   3   R VALUE            (WORKING SET) : 0.153                           
   3   FREE R VALUE                     : 0.181                           
   3   FREE R VALUE TEST SET SIZE   (%) : 1.000                           
   3   FREE R VALUE TEST SET COUNT      : 2165                            
   3                                                                      
   3  NUMBER OF NON-HYDROGEN ATOMS USED IN REFINEMENT.                    
   3   PROTEIN ATOMS            : 7958                                    
   3   NUCLEIC ACID ATOMS       : 0                                       
   3   HETEROGEN ATOMS          : 131                                     
   3   SOLVENT ATOMS            : 942                                     
   3                                                                      
   3  B VALUES.                                                           
   3   FROM WILSON PLOT           (A**2) : 16.40                          
   3   MEAN B VALUE      (OVERALL, A**2) : 14.97                          
   3   OVERALL ANISOTROPIC B VALUE.                                       
   3    B11 (A**2) : 0.12000                                              
   3    B22 (A**2) : -0.17000                                             
   3    B33 (A**2) : 0.07000                                              
   3    B12 (A**2) : 0.00000                                              
   3    B13 (A**2) : 0.07000                                              
   3    B23 (A**2) : 0.00000                                              
   3                                                                      
   3  ESTIMATED OVERALL COORDINATE ERROR.                                 
   3   ESU BASED ON R VALUE                            (A): NULL          
   3   ESU BASED ON FREE R VALUE                       (A): NULL          
   3   ESU BASED ON MAXIMUM LIKELIHOOD                 (A): NULL          
   3   ESU FOR B VALUES BASED ON MAXIMUM LIKELIHOOD (A**2): NULL          
   3                                                                      
   3  RMS DEVIATIONS FROM IDEAL VALUES.                                   
   3   DISTANCE RESTRAINTS.                    RMS    SIGMA               
   3    BOND LENGTH                     (A) : 0.013 ; NULL                
   3    ANGLE DISTANCE                  (A) : NULL  ; NULL                
   3    INTRAPLANAR 1-4 DISTANCE        (A) : NULL  ; NULL                
   3    H-BOND OR METAL COORDINATION    (A) : NULL  ; NULL                
   3                                                                      
   3   PLANE RESTRAINT                  (A) : NULL  ; NULL                
   3   CHIRAL-CENTER RESTRAINT       (A**3) : NULL  ; NULL                
   3                                                                      
   3   NON-BONDED CONTACT RESTRAINTS.                                     
   3    SINGLE TORSION                  (A) : NULL  ; NULL                
   3    MULTIPLE TORSION                (A) : NULL  ; NULL                
   3    H-BOND (X...Y)                  (A) : NULL  ; NULL                
   3    H-BOND (X-H...Y)                (A) : NULL  ; NULL                
   3                                                                      
   3   CONFORMATIONAL TORSION ANGLE RESTRAINTS.                           
   3    SPECIFIED                 (DEGREES) : NULL  ; NULL                
   3    PLANAR                    (DEGREES) : NULL  ; NULL                
   3    STAGGERED                 (DEGREES) : NULL  ; NULL                
   3    TRANSVERSE                (DEGREES) : NULL  ; NULL                
   3                                                                      
   3  ISOTROPIC THERMAL FACTOR RESTRAINTS.    RMS    SIGMA                
   3   MAIN-CHAIN BOND              (A**2) : NULL  ; NULL                 
   3   MAIN-CHAIN ANGLE             (A**2) : NULL  ; NULL                 
   3   SIDE-CHAIN BOND              (A**2) : NULL  ; NULL                 
   3   SIDE-CHAIN ANGLE             (A**2) : NULL  ; NULL                 
   3                                                                      
   3  OTHER REFINEMENT REMARKS: SUL 1024, WHICH IS ASSIGNED               
   3  ALTERNATE POSITION B, CORRESPONDS TO ALTERNATE CONFORMATION B       
   3  OF CHAIN D RESIDUE 115. CHAIN C: THE FOLLOWING RESIDUES             
   3  DISPLAY ALTERNATE CONFORMATIONS FOR SIDE CHAIN ATOMS ONLY :         
   3  THR23C S60C, GLU195C, GLU231C AND SER245C. CHAIN D: THE             
   3  FOLLOWING RESIDUES DISPLAY ALTERNATE CONFORMATIONS FOR SIDE         
   3  CHAIN ATOMS ONLY : SER33C SER60D, GLU86D, ARG125D, SER147D,         
   3  SER179D, GLU183D. GLY265D AND GLY266D DISPLAY ALTERNATE             
   3  CONFORMATIONS OF THE DIPEPTIDE. CHAINS C AND D: OTHER RESIDUES      
   3  IN ALTERNATE CONFORMATION CORRESPOND TO TWO DISTINCT                
   3  CONFORMATIONS OF THE ENZYME: CONFORMATIONS A AND B : MET99C,        
   3  LYS100C, GLN101C, TRP102C, GLU103C, VAL114C, SER115C, ALA116C,      
   3  VAL117C AND PRO118C. RESIDUE 70 EXISTS IN TWO CONFORMATIONS:        
   3  CONFORMATION A, AS A CLASSICAL NON MODIFIED LYS RESIDUE, AND        
   3  CONFORMATION B, AS KCX, A CARBAMYLATED LYSINE,IN CHAINS C AND       
   3  D. THERE IS NO DENSITY ACCOUNTING FOR CONFORMATION B OF             
   3  RESIDUES ARG97 C AND D, ALA98 C AND D AND MET99D, BUT THESE         
   3  RESIDUES ARE NECESSARLY IN AN ALTERNATE CONFORMATION FOR            
   3  STERICAL REASONS.                                                   
   4                                                                      
   4 1K55 COMPLIES WITH FORMAT V. 3.15, 01-DEC-08                         
 100                                                                      
 100 THIS ENTRY HAS BEEN PROCESSED BY RCSB ON 19-OCT-01.                  
 100 THE RCSB ID CODE IS RCSB014572.                                      
 200                                                                      
 200 EXPERIMENTAL DETAILS                                                 
 200  EXPERIMENT TYPE                : X-RAY DIFFRACTION                  
 200  DATE OF DATA COLLECTION        : 06-JUN-00                          
 200  TEMPERATURE           (KELVIN) : 100                                
 200  PH                             : 7.5                                
 200  NUMBER OF CRYSTALS USED        : 1                                  
 200                                                                      
 200  SYNCHROTRON              (Y/N) : Y                                  
 200  RADIATION SOURCE               : ESRF                               
 200  BEAMLINE                       : ID14-1                             
 200  X-RAY GENERATOR MODEL          : NULL                               
 200  MONOCHROMATIC OR LAUE    (M/L) : M                                  
 200  WAVELENGTH OR RANGE        (A) : 0.934                              
 200  MONOCHROMATOR                  : GERMANIUM GE(220)                  
 200  OPTICS                         : NULL                               
 200                                                                      
 200  DETECTOR TYPE                  : CCD                                
 200  DETECTOR MANUFACTURER          : MARRESEARCH                        
 200  INTENSITY-INTEGRATION SOFTWARE : MOSFLM                             
 200  DATA SCALING SOFTWARE          : CCP4 (SCALA)                       
 200                                                                      
 200  NUMBER OF UNIQUE REFLECTIONS   : 216019                             
 200  RESOLUTION RANGE HIGH      (A) : 1.390                              
 200  RESOLUTION RANGE LOW       (A) : 53.160                             
 200  REJECTION CRITERIA  (SIGMA(I)) : 0.000                              
 200                                                                      
 200 OVERALL.                                                             
 200  COMPLETENESS FOR RANGE     (%) : 99.0                               
 200  DATA REDUNDANCY                : 3.900                              
 200  R MERGE                    (I) : 0.08200                            
 200  R SYM                      (I) : 0.08200                            
 200  <I/SIGMA(I)> FOR THE DATA SET  : 11.8000                            
 200                                                                      
 200 IN THE HIGHEST RESOLUTION SHELL.                                     
 200  HIGHEST RESOLUTION SHELL, RANGE HIGH (A) : 1.39                     
 200  HIGHEST RESOLUTION SHELL, RANGE LOW  (A) : 1.47                     
 200  COMPLETENESS FOR SHELL     (%) : 99.0                               
 200  DATA REDUNDANCY IN SHELL       : 3.20                               
 200  R MERGE FOR SHELL          (I) : 0.37300                            
 200  R SYM FOR SHELL            (I) : 0.37300                            
 200  <I/SIGMA(I)> FOR SHELL         : 3.300                              
 200                                                                      
 200 DIFFRACTION PROTOCOL: SINGLE WAVELENGTH                              
 200 METHOD USED TO DETERMINE THE STRUCTURE: FOURIER SYNTHESIS            
 200 SOFTWARE USED: NULL                                                  
 200 STARTING MODEL: PDB ENTRY 1E4D                                       
 200                                                                      
 200 REMARK: NULL                                                         
 280                                                                      
 280 CRYSTAL                                                              
 280 SOLVENT CONTENT, VS   (%): 51.04                                     
 280 MATTHEWS COEFFICIENT, VM (ANGSTROMS**3/DA): 2.51                     
 280                                                                      
 280 CRYSTALLIZATION CONDITIONS: AMMONIUM SULPHATE, HEPES, PH 7.5,        
 280  VAPOR DIFFUSION, HANGING DROP, TEMPERATURE 277K                     
 290                                                                      
 290 CRYSTALLOGRAPHIC SYMMETRY                                            
 290 SYMMETRY OPERATORS FOR SPACE GROUP: P 1 21 1                         
 290                                                                      
 290      SYMOP   SYMMETRY                                                
 290     NNNMMM   OPERATOR                                                
 290       1555   X,Y,Z                                                   
 290       2555   -X,Y+1/2,-Z                                             
 290                                                                      
 290     WHERE NNN -> OPERATOR NUMBER                                     
 290           MMM -> TRANSLATION VECTOR                                  
 290                                                                      
 290 CRYSTALLOGRAPHIC SYMMETRY TRANSFORMATIONS                            
 290 THE FOLLOWING TRANSFORMATIONS OPERATE ON THE ATOM/HETATM             
 290 RECORDS IN THIS ENTRY TO PRODUCE CRYSTALLOGRAPHICALLY                
 290 RELATED MOLECULES.                                                   
 290   SMTRY1   1  1.000000  0.000000  0.000000        0.00000            
 290   SMTRY2   1  0.000000  1.000000  0.000000        0.00000            
 290   SMTRY3   1  0.000000  0.000000  1.000000        0.00000            
 290   SMTRY1   2 -1.000000  0.000000  0.000000        0.00000            
 290   SMTRY2   2  0.000000  1.000000  0.000000       41.14250            
 290   SMTRY3   2  0.000000  0.000000 -1.000000        0.00000            
 290                                                                      
 290 REMARK: NULL                                                         
 300                                                                      
 300 BIOMOLECULE: 1, 2, 3                                                 
 300 SEE REMARK 350 FOR THE AUTHOR PROVIDED AND/OR PROGRAM                
 300 GENERATED ASSEMBLY INFORMATION FOR THE STRUCTURE IN                  
 300 THIS ENTRY. THE REMARK MAY ALSO PROVIDE INFORMATION ON               
 300 BURIED SURFACE AREA.                                                 
 300 REMARK: THE BIOLOGICAL ASSEMBLY IS A DIMER. THERE ARE TWO DIMERS     
 300 IN THE ASYMMETRIC UNIT : CHAINS A AND C FORM A DIMER CHAINS B        
 300 AND D FORM A DIMER                                                   
 350                                                                      
 350 COORDINATES FOR A COMPLETE MULTIMER REPRESENTING THE KNOWN           
 350 BIOLOGICALLY SIGNIFICANT OLIGOMERIZATION STATE OF THE                
 350 MOLECULE CAN BE GENERATED BY APPLYING BIOMT TRANSFORMATIONS          
 350 GIVEN BELOW.  BOTH NON-CRYSTALLOGRAPHIC AND                          
 350 CRYSTALLOGRAPHIC OPERATIONS ARE GIVEN.                               
 350                                                                      
 350 BIOMOLECULE: 1                                                       
 350 AUTHOR DETERMINED BIOLOGICAL UNIT: DIMERIC                           
 350 SOFTWARE DETERMINED QUATERNARY STRUCTURE: DIMERIC                    
 350 SOFTWARE USED: PISA                                                  
 350 TOTAL BURIED SURFACE AREA: 4720 ANGSTROM**2                          
 350 SURFACE AREA OF THE COMPLEX: 20300 ANGSTROM**2                       
 350 CHANGE IN SOLVENT FREE ENERGY: -96.0 KCAL/MOL                        
 350 APPLY THE FOLLOWING TO CHAINS: A, C                                  
 350   BIOMT1   1  1.000000  0.000000  0.000000        0.00000            
 350   BIOMT2   1  0.000000  1.000000  0.000000        0.00000            
 350   BIOMT3   1  0.000000  0.000000  1.000000        0.00000            
 350                                                                      
 350 BIOMOLECULE: 2                                                       
 350 AUTHOR DETERMINED BIOLOGICAL UNIT: DIMERIC                           
 350 SOFTWARE DETERMINED QUATERNARY STRUCTURE: DIMERIC                    
 350 SOFTWARE USED: PISA                                                  
 350 TOTAL BURIED SURFACE AREA: 5200 ANGSTROM**2                          
 350 SURFACE AREA OF THE COMPLEX: 20880 ANGSTROM**2                       
 350 CHANGE IN SOLVENT FREE ENERGY: -108.0 KCAL/MOL                       
 350 APPLY THE FOLLOWING TO CHAINS: B, D                                  
 350   BIOMT1   1  1.000000  0.000000  0.000000        0.00000            
 350   BIOMT2   1  0.000000  1.000000  0.000000        0.00000            
 350   BIOMT3   1  0.000000  0.000000  1.000000        0.00000            
 350                                                                      
 350 BIOMOLECULE: 3                                                       
 350 SOFTWARE DETERMINED QUATERNARY STRUCTURE: TETRAMERIC                 
 350 SOFTWARE USED: PISA                                                  
 350 TOTAL BURIED SURFACE AREA: 8700 ANGSTROM**2                          
 350 SURFACE AREA OF THE COMPLEX: 42390 ANGSTROM**2                       
 350 CHANGE IN SOLVENT FREE ENERGY: -231.0 KCAL/MOL                       
 350 APPLY THE FOLLOWING TO CHAINS: C                                     
 350   BIOMT1   1 -1.000000  0.000000  0.000000       -9.64273            
 350   BIOMT2   1  0.000000  1.000000  0.000000      -41.14250            
 350   BIOMT3   1  0.000000  0.000000 -1.000000      101.25489            
 350 APPLY THE FOLLOWING TO CHAINS: B                                     
 350   BIOMT1   2 -1.000000  0.000000  0.000000        0.00000            
 350   BIOMT2   2  0.000000  1.000000  0.000000      -41.14250            
 350   BIOMT3   2  0.000000  0.000000 -1.000000        0.00000            
 350 APPLY THE FOLLOWING TO CHAINS: A, D                                  
 350   BIOMT1   3  1.000000  0.000000  0.000000        0.00000            
 350   BIOMT2   3  0.000000  1.000000  0.000000        0.00000            
 350   BIOMT3   3  0.000000  0.000000  1.000000        0.00000            
 465                                                                      
 465 MISSING RESIDUES                                                     
 465 THE FOLLOWING RESIDUES WERE NOT LOCATED IN THE                       
 465 EXPERIMENT. (M=MODEL NUMBER; RES=RESIDUE NAME; C=CHAIN               
 465 IDENTIFIER; SSSEQ=SEQUENCE NUMBER; I=INSERTION CODE.)                
 465                                                                      
 465   M RES C SSSEQI                                                     
 465     GLY A   266                                                      
 465     GLY B   266                                                      
 470                                                                      
 470 MISSING ATOM                                                         
 470 THE FOLLOWING RESIDUES HAVE MISSING ATOMS(M=MODEL NUMBER;            
 470 RES=RESIDUE NAME; C=CHAIN IDENTIFIER; SSEQ=SEQUENCE NUMBER;          
 470 I=INSERTION CODE):                                                   
 470   M RES CSSEQI  ATOMS                                                
 470     ARG C  97    CG   CD   NE   CZ   NH1  NH2                        
 470     MET C  99    CG   SD   CE                                        
 470     LYS C 100    CG   CD   CE   NZ                                   
 470     GLN C 101    CG   CD   OE1  NE2                                  
 470     GLU C 103    CG   CD   OE1  OE2                                  
 470     VAL C 117    CG1  CG2                                            
 470     LYS D  95    CG   CD   CE   NZ                                   
 470     ARG D  97    CB   CG   CD   NE   CZ   NH1  NH2                   
 470     MET D  99    CG   SD   CE                                        
 470     LYS D 100    CG   CD   CE   NZ                                   
 470     GLN D 101    CG   CD   OE1  NE2                                  
 470     GLU D 103    CD   OE1  OE2                                       
 470     GLU D 214    CD   OE1  OE2                                       
 500                                                                      
 500 GEOMETRY AND STEREOCHEMISTRY                                         
 500 SUBTOPIC: CLOSE CONTACTS IN SAME ASYMMETRIC UNIT                     
 500                                                                      
 500 THE FOLLOWING ATOMS ARE IN CLOSE CONTACT.                            
 500                                                                      
 500  ATM1  RES C  SSEQI   ATM2  RES C  SSEQI           DISTANCE          
 500   O1   EDO D  1036     O    HOH D  1311              1.80            
 500   O4   SO4 D  1014     O    HOH D  1308              1.84            
 500   OE2  GLU C   231     O    HOH C  1205              1.84            
 500   OE1  GLU C   195     O    HOH C  1203              2.05            
 500   O    HOH D  1134     O    HOH D  1306              2.08            
 500   O    HOH B  1267     O    HOH D  1303              2.12            
 500   OE1  GLU A   261     O    HOH A  1207              2.19            
 500                                                                      
 500 REMARK: NULL                                                         
 500                                                                      
 500 GEOMETRY AND STEREOCHEMISTRY                                         
 500 SUBTOPIC: CLOSE CONTACTS                                             
 500                                                                      
 500 THE FOLLOWING ATOMS THAT ARE RELATED BY CRYSTALLOGRAPHIC             
 500 SYMMETRY ARE IN CLOSE CONTACT.  AN ATOM LOCATED WITHIN 0.15          
 500 ANGSTROMS OF A SYMMETRY RELATED ATOM IS ASSUMED TO BE ON A           
 500 SPECIAL POSITION AND IS, THEREFORE, LISTED IN REMARK 375             
 500 INSTEAD OF REMARK 500.  ATOMS WITH NON-BLANK ALTERNATE               
 500 LOCATION INDICATORS ARE NOT INCLUDED IN THE CALCULATIONS.            
 500                                                                      
 500 DISTANCE CUTOFF:                                                     
 500 2.2 ANGSTROMS FOR CONTACTS NOT INVOLVING HYDROGEN ATOMS              
 500 1.6 ANGSTROMS FOR CONTACTS INVOLVING HYDROGEN ATOMS                  
 500                                                                      
 500  ATM1  RES C  SSEQI   ATM2  RES C  SSEQI  SSYMOP   DISTANCE          
 500   NZ   LYS B   100     O4   SO4 D  1020     2555     1.67            
 500                                                                      
 500 REMARK: NULL                                                         
 500                                                                      
 500 GEOMETRY AND STEREOCHEMISTRY                                         
 500 SUBTOPIC: COVALENT BOND ANGLES                                       
 500                                                                      
 500 THE STEREOCHEMICAL PARAMETERS OF THE FOLLOWING RESIDUES              
 500 HAVE VALUES WHICH DEVIATE FROM EXPECTED VALUES BY MORE               
 500 THAN 6*RMSD (M=MODEL NUMBER; RES=RESIDUE NAME; C=CHAIN               
 500 IDENTIFIER; SSEQ=SEQUENCE NUMBER; I=INSERTION CODE).                 
 500                                                                      
 500 STANDARD TABLE:                                                      
 500 FORMAT: (10X,I3,1X,A3,1X,A1,I4,A1,3(1X,A4,2X),12X,F5.1)              
 500                                                                      
 500 EXPECTED VALUES PROTEIN: ENGH AND HUBER, 1999                        
 500 EXPECTED VALUES NUCLEIC ACID: CLOWNEY ET AL 1996                     
 500                                                                      
 500  M RES CSSEQI ATM1   ATM2   ATM3                                     
 500    ASP C  55   CB  -  CG  -  OD2 ANGL. DEV. =   6.5 DEGREES          
 500    MET C  99   N   -  CA  -  CB  ANGL. DEV. = -13.5 DEGREES          
 500                                                                      
 500 REMARK: NULL                                                         
 500                                                                      
 500 GEOMETRY AND STEREOCHEMISTRY                                         
 500 SUBTOPIC: TORSION ANGLES                                             
 500                                                                      
 500 TORSION ANGLES OUTSIDE THE EXPECTED RAMACHANDRAN REGIONS:            
 500 (M=MODEL NUMBER; RES=RESIDUE NAME; C=CHAIN IDENTIFIER;               
 500 SSEQ=SEQUENCE NUMBER; I=INSERTION CODE).                             
 500                                                                      
 500 STANDARD TABLE:                                                      
 500 FORMAT:(10X,I3,1X,A3,1X,A1,I4,A1,4X,F7.2,3X,F7.2)                    
 500                                                                      
 500 EXPECTED VALUES: GJ KLEYWEGT AND TA JONES (1996). PHI/PSI-           
 500 CHOLOGY: RAMACHANDRAN REVISITED. STRUCTURE 4, 1395 - 1400            
 500                                                                      
 500  M RES CSSEQI        PSI       PHI                                   
 500    SER A  46      -46.70     76.32                                   
 500    ALA A  66     -141.79     51.71                                   
 500    ASN A  85     -174.08   -172.48                                   
 500    GLU A 229     -125.19     51.51                                   
 500    SER B  46      -47.31     77.10                                   
 500    ALA B  66     -141.31     50.76                                   
 500    ASN B  85     -173.52   -170.90                                   
 500    GLU B 156       -3.34   -141.92                                   
 500    GLU B 229     -124.44     55.47                                   
 500    ALA C  36      -15.82    102.86                                   
 500    SER C  46      -46.70     77.29                                   
 500    ALA C  66     -140.01     49.20                                   
 500    GLU C 103       46.20    -79.97                                   
 500    VAL C 117      -70.69    -31.64                                   
 500    GLU C 156       -0.09   -147.19                                   
 500    GLU C 229     -124.19     54.59                                   
 500    SER D  46      -48.78     78.28                                   
 500    ALA D  66     -142.68     51.66                                   
 500    LYS D 152       13.86   -152.66                                   
 500    PHE D 208      119.50   -163.79                                   
 500    GLU D 229     -125.37     52.99                                   
 500                                                                      
 500 REMARK: NULL                                                         
 500                                                                      
 500 GEOMETRY AND STEREOCHEMISTRY                                         
 500 SUBTOPIC: MAIN CHAIN PLANARITY                                       
 500                                                                      
 500 THE FOLLOWING RESIDUES HAVE A PSEUDO PLANARITY                       
 500 TORSION, C(I) - CA(I) - N(I+1) - O(I), GREATER                       
 500 10.0 DEGREES. (M=MODEL NUMBER; RES=RESIDUE NAME;                     
 500 C=CHAIN IDENTIFIER; SSEQ=SEQUENCE NUMBER;                            
 500 I=INSERTION CODE).                                                   
 500                                                                      
 500  M RES CSSEQI        ANGLE                                           
 500    ALA C  98         16.44                                           
 500                                                                      
 500 REMARK: NULL                                                         
 525                                                                      
 525 SOLVENT                                                              
 525                                                                      
 525 THE SOLVENT MOLECULES HAVE CHAIN IDENTIFIERS THAT                    
 525 INDICATE THE POLYMER CHAIN WITH WHICH THEY ARE MOST                  
 525 CLOSELY ASSOCIATED. THE REMARK LISTS ALL THE SOLVENT                 
 525 MOLECULES WHICH ARE MORE THAN 5A AWAY FROM THE                       
 525 NEAREST POLYMER CHAIN (M = MODEL NUMBER;                             
 525 RES=RESIDUE NAME; C=CHAIN IDENTIFIER; SSEQ=SEQUENCE                  
 525 NUMBER; I=INSERTION CODE):                                           
 525                                                                      
 525  M RES CSSEQI                                                        
 525    HOH C1185        DISTANCE =  6.29 ANGSTROMS                       
 525    HOH C1197        DISTANCE =  5.26 ANGSTROMS                       
 525    HOH B1229        DISTANCE =  5.33 ANGSTROMS                       
 800                                                                      
 800 SITE                                                                 
 800 SITE_IDENTIFIER: AC1                                                 
 800 EVIDENCE_CODE: SOFTWARE                                              
 800 SITE_DESCRIPTION: BINDING SITE FOR RESIDUE SO4 A 1004                
 800 SITE_IDENTIFIER: AC2                                                 
 800 EVIDENCE_CODE: SOFTWARE                                              
 800 SITE_DESCRIPTION: BINDING SITE FOR RESIDUE SO4 A 1006                
 800 SITE_IDENTIFIER: AC3                                                 
 800 EVIDENCE_CODE: SOFTWARE                                              
 800 SITE_DESCRIPTION: BINDING SITE FOR RESIDUE SO4 A 1007                
 800 SITE_IDENTIFIER: AC4                                                 
 800 EVIDENCE_CODE: SOFTWARE                                              
 800 SITE_DESCRIPTION: BINDING SITE FOR RESIDUE SO4 A 1012                
 800 SITE_IDENTIFIER: AC5                                                 
 800 EVIDENCE_CODE: SOFTWARE                                              
 800 SITE_DESCRIPTION: BINDING SITE FOR RESIDUE SO4 A 1015                
 800 SITE_IDENTIFIER: AC6                                                 
 800 EVIDENCE_CODE: SOFTWARE                                              
 800 SITE_DESCRIPTION: BINDING SITE FOR RESIDUE SO4 A 1016                
 800 SITE_IDENTIFIER: AC7                                                 
 800 EVIDENCE_CODE: SOFTWARE                                              
 800 SITE_DESCRIPTION: BINDING SITE FOR RESIDUE EDO A 1038                
 800 SITE_IDENTIFIER: AC8                                                 
 800 EVIDENCE_CODE: SOFTWARE                                              
 800 SITE_DESCRIPTION: BINDING SITE FOR RESIDUE EDO A 1039                
 800 SITE_IDENTIFIER: AC9                                                 
 800 EVIDENCE_CODE: SOFTWARE                                              
 800 SITE_DESCRIPTION: BINDING SITE FOR RESIDUE EDO A 1041                
 800 SITE_IDENTIFIER: BC1                                                 
 800 EVIDENCE_CODE: SOFTWARE                                              
 800 SITE_DESCRIPTION: BINDING SITE FOR RESIDUE SO4 B 1001                
 800 SITE_IDENTIFIER: BC2                                                 
 800 EVIDENCE_CODE: SOFTWARE                                              
 800 SITE_DESCRIPTION: BINDING SITE FOR RESIDUE SO4 B 1011                
 800 SITE_IDENTIFIER: BC3                                                 
 800 EVIDENCE_CODE: SOFTWARE                                              
 800 SITE_DESCRIPTION: BINDING SITE FOR RESIDUE SO4 B 1021                
 800 SITE_IDENTIFIER: BC4                                                 
 800 EVIDENCE_CODE: SOFTWARE                                              
 800 SITE_DESCRIPTION: BINDING SITE FOR RESIDUE SO4 B 1022                
 800 SITE_IDENTIFIER: BC5                                                 
 800 EVIDENCE_CODE: SOFTWARE                                              
 800 SITE_DESCRIPTION: BINDING SITE FOR RESIDUE SO4 B 1023                
 800 SITE_IDENTIFIER: BC6                                                 
 800 EVIDENCE_CODE: SOFTWARE                                              
 800 SITE_DESCRIPTION: BINDING SITE FOR RESIDUE EDO B 1033                
 800 SITE_IDENTIFIER: BC7                                                 
 800 EVIDENCE_CODE: SOFTWARE                                              
 800 SITE_DESCRIPTION: BINDING SITE FOR RESIDUE EDO B 1037                
 800 SITE_IDENTIFIER: BC8                                                 
 800 EVIDENCE_CODE: SOFTWARE                                              
 800 SITE_DESCRIPTION: BINDING SITE FOR RESIDUE SO4 C 1005                
 800 SITE_IDENTIFIER: BC9                                                 
 800 EVIDENCE_CODE: SOFTWARE                                              
 800 SITE_DESCRIPTION: BINDING SITE FOR RESIDUE SO4 C 1019                
 800 SITE_IDENTIFIER: CC1                                                 
 800 EVIDENCE_CODE: SOFTWARE                                              
 800 SITE_DESCRIPTION: BINDING SITE FOR RESIDUE SO4 D 1003                
 800 SITE_IDENTIFIER: CC2                                                 
 800 EVIDENCE_CODE: SOFTWARE                                              
 800 SITE_DESCRIPTION: BINDING SITE FOR RESIDUE SO4 D 1009                
 800 SITE_IDENTIFIER: CC3                                                 
 800 EVIDENCE_CODE: SOFTWARE                                              
 800 SITE_DESCRIPTION: BINDING SITE FOR RESIDUE SO4 D 1014                
 800 SITE_IDENTIFIER: CC4                                                 
 800 EVIDENCE_CODE: SOFTWARE                                              
 800 SITE_DESCRIPTION: BINDING SITE FOR RESIDUE SO4 D 1020                
 800 SITE_IDENTIFIER: CC5                                                 
 800 EVIDENCE_CODE: SOFTWARE                                              
 800 SITE_DESCRIPTION: BINDING SITE FOR RESIDUE SO4 D 1024                
 800 SITE_IDENTIFIER: CC6                                                 
 800 EVIDENCE_CODE: SOFTWARE                                              
 800 SITE_DESCRIPTION: BINDING SITE FOR RESIDUE EDO D 1034                
 800 SITE_IDENTIFIER: CC7                                                 
 800 EVIDENCE_CODE: SOFTWARE                                              
 800 SITE_DESCRIPTION: BINDING SITE FOR RESIDUE EDO D 1035                
 800 SITE_IDENTIFIER: CC8                                                 
 800 EVIDENCE_CODE: SOFTWARE                                              
 800 SITE_DESCRIPTION: BINDING SITE FOR RESIDUE EDO D 1036                
 800 SITE_IDENTIFIER: CC9                                                 
 800 EVIDENCE_CODE: SOFTWARE                                              
 800 SITE_DESCRIPTION: BINDING SITE FOR RESIDUE EDO D 1040                
 900                                                                      
 900 RELATED ENTRIES                                                      
 900 RELATED ID: 1E4D   RELATED DB: PDB                                   
 900 STRUCTURE OF OXA 10 BETA-LACTAMASE AT PH 8.3                         
 900 RELATED ID: 1E3U   RELATED DB: PDB                                   
 900 MAD STRUCTURE OF OXA10 CLASS D BETA-LACTAMASE                        
 900 RELATED ID: 1K54   RELATED DB: PDB                                   
 900 OXA10 ACYLATED AT SER67 WITH REACTED 6BETA-(1-HYDROXY-1-             
 900 METHYLETHYL) PENICILLANIC ACID                                       
 900 RELATED ID: 1K56   RELATED DB: PDB                                   
 900 OXA 10 CLASS D BETA-LACTAMASE AT PH 6.5                              
 900 RELATED ID: 1K57   RELATED DB: PDB                                   
 900 OXA 10 CLASS D BETA-LACTAMASE AT PH 6.0                              

>  <DBREF>
 1K55 A   21   266  UNP    P14489   BLP2_PSEAE       1    246             
 1K55 B   21   266  UNP    P14489   BLP2_PSEAE       1    246             
 1K55 C   21   266  UNP    P14489   BLP2_PSEAE       1    246             
 1K55 D   21   266  UNP    P14489   BLP2_PSEAE       1    246             

>  <SEQADV>
 1K55 KCX C   70  UNP  P14489    LYS    50 MICROHETEROGENEITY             
 1K55 KCX D   70  UNP  P14489    LYS    50 MICROHETEROGENEITY             

>  <SEQRES>
   1 A  246  SER ILE THR GLU ASN THR SER TRP ASN LYS GLU PHE SER          
   2 A  246  ALA GLU ALA VAL ASN GLY VAL PHE VAL LEU CYS LYS SER          
   3 A  246  SER SER LYS SER CYS ALA THR ASN ASP LEU ALA ARG ALA          
   4 A  246  SER LYS GLU TYR LEU PRO ALA SER THR PHE KCX ILE PRO          
   5 A  246  ASN ALA ILE ILE GLY LEU GLU THR GLY VAL ILE LYS ASN          
   6 A  246  GLU HIS GLN VAL PHE LYS TRP ASP GLY LYS PRO ARG ALA          
   7 A  246  MET LYS GLN TRP GLU ARG ASP LEU THR LEU ARG GLY ALA          
   8 A  246  ILE GLN VAL SER ALA VAL PRO VAL PHE GLN GLN ILE ALA          
   9 A  246  ARG GLU VAL GLY GLU VAL ARG MET GLN LYS TYR LEU LYS          
  10 A  246  LYS PHE SER TYR GLY ASN GLN ASN ILE SER GLY GLY ILE          
  11 A  246  ASP LYS PHE TRP LEU GLU GLY GLN LEU ARG ILE SER ALA          
  12 A  246  VAL ASN GLN VAL GLU PHE LEU GLU SER LEU TYR LEU ASN          
  13 A  246  LYS LEU SER ALA SER LYS GLU ASN GLN LEU ILE VAL LYS          
  14 A  246  GLU ALA LEU VAL THR GLU ALA ALA PRO GLU TYR LEU VAL          
  15 A  246  HIS SER LYS THR GLY PHE SER GLY VAL GLY THR GLU SER          
  16 A  246  ASN PRO GLY VAL ALA TRP TRP VAL GLY TRP VAL GLU LYS          
  17 A  246  GLU THR GLU VAL TYR PHE PHE ALA PHE ASN MET ASP ILE          
  18 A  246  ASP ASN GLU SER LYS LEU PRO LEU ARG LYS SER ILE PRO          
  19 A  246  THR LYS ILE MET GLU SER GLU GLY ILE ILE GLY GLY              

>  <MODRES>
 1K55 KCX A   70  LYS  LYSINE NZ-CARBOXYLIC ACID                          
 1K55 KCX B   70  LYS  LYSINE NZ-CARBOXYLIC ACID                          
 1K55 KCX C   70  LYS  LYSINE NZ-CARBOXYLIC ACID                          
 1K55 KCX D   70  LYS  LYSINE NZ-CARBOXYLIC ACID                          

>  <HET>
 KCX  A  70      12                                                       
 KCX  B  70      12                                                       
 KCX  C  70      12                                                       
 KCX  D  70      12                                                       
 SO4  A1004       5                                                       
 SO4  A1006       5                                                       
 SO4  A1007       5                                                       
 SO4  A1012       5                                                       
 SO4  A1015       5                                                       
 SO4  A1016       5                                                       
 EDO  A1038       4                                                       
 EDO  A1039       4                                                       
 EDO  A1041       4                                                       
 SO4  B1001       5                                                       
 SO4  B1011       5                                                       
 SO4  B1021       5                                                       
 SO4  B1022       5                                                       
 SO4  B1023       5                                                       
 EDO  B1033       4                                                       
 EDO  B1037       4                                                       
 SO4  C1005       5                                                       
 SO4  C1019       5                                                       
 SO4  D1003      10                                                       
 SO4  D1009       5                                                       
 SO4  D1014       5                                                       
 SO4  D1020       5                                                       
 SO4  D1024       5                                                       
 EDO  D1034       4                                                       
 EDO  D1035       4                                                       
 EDO  D1036       4                                                       
 EDO  D1040       4                                                       

>  <HETNAM>
     KCX LYSINE NZ-CARBOXYLIC ACID                                        
     SO4 SULFATE ION                                                      
     EDO 1,2-ETHANEDIOL                                                   

>  <HETSYN>
     EDO ETHYLENE GLYCOL                                                  

>  <FORMUL>
   1  KCX    4(C7 H14 N2 O4)                                              
   5  SO4    18(O4 S 2-)                                                  
  11  EDO    9(C2 H6 O2)                                                  
  32  HOH   *942(H2 O)                                                    

>  <HELIX>
   1   1 THR A   26  TRP A   28  1                                   3    
   2   2 ASN A   29  ALA A   34  1                                   6    
   3   3 ASP A   55  SER A   60  1                                   6    
   4   4 PRO A   65  THR A   68  1                                   4    
   5   5 PHE A   69  THR A   80  1                                  12    
   6   6 MET A   99  GLU A  103  1                                   5    
   7   7 LEU A  108  VAL A  114  1                                   7    
   8   8 ALA A  116  VAL A  127  1                                  12    
   9   9 GLY A  128  PHE A  139  1                                  12    
  10  10 SER A  162  LEU A  175  1                                  14    
  11  11 SER A  181  LEU A  192  1                                  12    
  12  12 ASN A  243  LEU A  247  1                                   5    
  13  13 PRO A  248  GLU A  261  1                                  14    

>  <SHEET>
   1   1 1 ILE A  22  GLU A  24  0                                        
   2   2 1 GLY A  39  LYS A  45  0                                        
   3   3 1 CYS A  51  THR A  53  0                                        
   4   4 1 VAL A  89  PHE A  90  0                                        
   5   5 1 LEU A 106  THR A 107  0                                        
   6   6 1 VAL A 193  ALA A 197  0                                        
   7   7 1 TYR A 200  PHE A 208  0                                        
   8   8 1 GLY A 218  LYS A 228  0                                        
   9   9 1 GLU A 231  ILE A 241  0                                        

>  <SSBOND>
 *** CYS A   44    CYS A   51                          1555   1555  2.06  

>  <SITE>
 *** AC1  4 ARG A 131  LYS A 134  TYR A 135  HOH A1193                    
 *** AC2  5 THR A 206  ARG A 250  LYS A 251  SO4 A1007                    
 *** AC2  5 HOH A1070                                                     
 *** AC3  9 SER A  67  SER A 115  LYS A 205  THR A 206                    
 *** AC3  9 GLY A 207  PHE A 208  ARG A 250  SO4 A1006                    
 *** AC3  9 HOH A1050                                                     
 *** AC4  6 GLY A 128  GLU A 129  VAL A 130  HOH A1048                    
 *** AC4  6 HOH A1054  HOH A1149                                          
 *** AC5  4 MET A  99  LYS A 100  GLN A 101  HOH A1186                    
 *** AC6  2 ARG A 160  HOH A1178                                          
 *** AC7  4 GLU A 195  TYR A 200  ILE A 263  HOH A1130                    
 *** AC8  7 GLU A 199  GLU A 227  GLU A 229  HOH A1136                    
 *** AC8  7 THR C 107  ARG C 109  HOH C1068                               
 *** AC9  5 PRO A 217  ASP A 240  ASP A 242  HOH A1103                    
 *** AC9  5 HOH A1134                                                     
 *** BC1 11 SER B  67  SER B 115  LYS B 205  THR B 206                    
 *** BC1 11 GLY B 207  PHE B 208  ARG B 250  SO4 B1011                    
 *** BC1 11 HOH B1044  HOH B1147  HOH B1257                               
 *** BC2  5 THR B 206  ARG B 250  SO4 B1001  HOH B1147                    
 *** BC2  5 HOH B1271                                                     
 *** BC3  4 ARG B 131  LYS B 134  TYR B 135  HOH B1215                    
 *** BC4  2 ARG B 160  HOH B1308                                          
 *** BC5  5 MET B  99  LYS B 100  GLN B 101  HOH B1216                    
 *** BC5  5 HOH B1221                                                     
 *** BC6  7 ASN B  29  PHE B  32  VAL B  37  ASN B  38                    
 *** BC6  7 GLY B  39  ASN B  54  HOH B1180                               
 *** BC7  7 PRO B 217  ASP B 240  ASP B 242  HOH B1050                    
 *** BC7  7 HOH B1072  HOH B1164  HOH B1199                               
 *** BC8  8 LYS B  95  SER C 115  LYS C 205  THR C 206                    
 *** BC8  8 GLY C 207  PHE C 208  ARG C 250  HOH C1053                    
 *** BC9  3 LYS B 152  THR C 213  HOH C1118                               
 *** CC1  9 LYS A  95  SER D  67  SER D 115  THR D 206                    
 *** CC1  9 GLY D 207  PHE D 208  ARG D 250  SO4 D1024                    
 *** CC1  9 HOH D1081                                                     
 *** CC2  3 HOH B1245  SER D 181  LYS D 182                               
 *** CC3  5 ARG D 250  LYS D 251  HOH D1291  HOH D1301                    
 *** CC3  5 HOH D1308                                                     
 *** CC4  4 HOH A1206  LYS D 152  HOH D1203  HOH D1241                    
 *** CC5  9 SER D  67  LYS D  70  TRP D 102  VAL D 114                    
 *** CC5  9 SER D 115  ALA D 116  VAL D 117  SO4 D1003                    
 *** CC5  9 HOH D1273                                                     
 *** CC6  7 ARG B 109  ALA D 197  PRO D 198  GLU D 199                    
 *** CC6  7 TYR D 200  GLU D 229  HOH D1044                               
 *** CC7  5 TYR D 200  THR D 255  MET D 258  ILE D 264                    
 *** CC7  5 EDO D1036                                                     
 *** CC8  3 ILE D 264  EDO D1035  HOH D1311                               
 *** CC9  5 LYS A  91  HOH A1113  MET D  99  LYS D 100                    
 *** CC9  5 GLN D 101                                                     

>  <ORIGX1>
      1.000000  0.000000  0.000000        0.00000                         

>  <ORIGX2>
      0.000000  1.000000  0.000000        0.00000                         

>  <ORIGX3>
      0.000000  0.000000  1.000000        0.00000                         

>  <SCALE1>
      0.015035  0.000000  0.001432        0.00000                         

>  <SCALE2>
      0.000000  0.012153  0.000000        0.00000                         

>  <SCALE3>
      0.000000  0.000000  0.009876        0.00000                         

>  <ANISOU>
    1  N   SER A  67     1672   1687   1598    -76    -66     -2       N  
    2  CA  SER A  67     1677   1775   1614    -57   -106     10       C  
    3  C   SER A  67     1501   1687   1505    -79    -23     36       C  
    4  O   SER A  67     1499   1754   1323    -91     19    -38       O  
    5  CB  SER A  67     1658   1844   1805    -47    -17    -46       C  
    6  OG  SER A  67     2124   2172   1995    -18   -207   -118       O  

$$$$
