APO_5UL8_chimeraFH_SER.pdb
 OpenBabel08212313463D

 11 10  0  0  1  0  0  0  0  0999 V2000
   19.2020   11.9830   12.6950 N   0  0  0  0  0  0  0  0  0  0  0  0
   19.8530   12.7950   13.7240 C   0  0  2  0  0  0  0  0  0  0  0  0
   19.0600   12.9330   15.0010 C   0  0  0  0  0  0  0  0  0  0  0  0
   19.6030   13.4950   15.9620 O   0  0  0  0  0  0  0  0  0  0  0  0
   20.1540   14.2090   13.2300 C   0  0  0  0  0  0  0  0  0  0  0  0
   21.2090   14.2200   12.2950 O   0  0  0  0  0  0  0  0  0  0  0  0
   18.9430   12.4140   11.9980 H   0  0  0  0  0  0  0  0  0  0  0  0
   20.6690   12.3070   13.9150 H   0  0  0  0  0  0  0  0  0  0  0  0
   19.3580   14.5870   12.8250 H   0  0  0  0  0  0  0  0  0  0  0  0
   20.3840   14.7740   13.9840 H   0  0  0  0  0  0  0  0  0  0  0  0
   21.1760   14.9280   11.8440 H   0  0  0  0  0  0  0  0  0  0  0  0
  1  2  1  0  0  0  0
  2  8  1  1  0  0  0
  2  3  1  0  0  0  0
  3  4  2  0  0  0  0
  5  2  1  0  0  0  0
  5 10  1  0  0  0  0
  6  5  1  0  0  0  0
  7  1  1  0  0  0  0
  9  5  1  0  0  0  0
 11  6  1  0  0  0  0
M  END
>  <>
                                                                          

>  <USER>
MOD reduce.3.7.201124 H: found=0, std=0, add=2131, rem=0, adj=53          
MOD -----------------------------------------------------------------     
MOD scores for adjustable sidechains, with "set" totals for H,N and Q     
MOD "o" means original, "f" means flipped, "180deg" is methyl default     
MOD "!" flags a clash with an overlap of 0.40A or greater                 
MOD flip categories: "K"=keep, "C"=clashes, "X"=uncertain, "F"=flip       
MOD Set 1.1: A  71 SER OG  :   rot  -70:sc=    1.58                       
MOD Set 1.2: A 264 TYR OH  :   rot -154:sc=   0.792                       
MOD Set 2.1: A 214 ASN     :      amide:sc=   0.172  K(o=2.4,f=-1.6!)     
MOD Set 2.2: A 216 THR OG1 :   rot -146:sc=    1.04                       
MOD Set 2.3: A 235 THR OG1 :   rot -121:sc=    1.18                       
MOD Set 3.1: A  70 SER OG  :   rot  160:sc=       1                       
MOD Set 3.2: A  73 LYS NZ  :NH3+    164:sc=    3.27   (180deg=0.871)      
MOD Set 3.3: A 130 SER OG A:   rot  151:sc=  -0.621                       
MOD Set 3.4: A 130 SER OG B:   rot  180:sc=    1.07                       
MOD Set 3.5: A 132 ASN     :      amide:sc=   0.938  K(o=8,f=-4.7!)       
MOD Set 3.6: A 234 LYS NZ  :NH3+    156:sc=    2.29   (180deg=0.828)      
MOD Set 4.1: A  27 ASN     :      amide:sc=   0.776  K(o=0.75,f=-5.9!)    
MOD Set 4.2: A  59 SER OG B:   rot  170:sc=  -0.021                       
MOD Set 5.1: A  26 THR OG1 :   rot  -46:sc=   0.189                       
MOD Set 5.2: A  56 THR OG1 :   rot  159:sc=   0.176                       
MOD Single : A  23 HIS     :     no HD1:sc=   0.122  K(o=0.12,f=-2.3!)    
MOD Single : A  35 LYS NZ  :NH3+    180:sc=       0   (180deg=0)          
MOD Single : A  38 GLN     :      amide:sc=       0  X(o=0,f=-0.42)       
MOD Single : A  43 SER OG  :   rot  180:sc=       0                       
MOD Single : A  47 TYR OH  :   rot  180:sc=       0                       
MOD Single : A  51 THR OG1 :   rot  -72:sc=    1.17                       
MOD Single : A  53 SER OG  :   rot  180:sc=   0.239                       
MOD Single : A  59 SER OG A:   rot  180:sc=       0                       
MOD Single : A  60 TYR OH  :   rot -178:sc=    1.29                       
MOD Single : A  84 SER OG  :   rot  -37:sc=    1.27                       
MOD Single : A  85 GLN     :      amide:sc=  0.0542  K(o=0.054,f=-3!)     
MOD Single : A  86 GLN     :      amide:sc=  -0.218  X(o=-0.22,f=-0.26)   
MOD Single : A  87 GLN    A:      amide:sc=  -0.534  X(o=-0.53,f=-0.9)    
MOD Single : A  87 GLN    B:      amide:sc=  -0.272  K(o=-0.27,f=-0.85)   
MOD Single : A  93 THR OG1 :   rot   90:sc= 0.00241                       
MOD Single : A  97 TYR OH  :   rot -171:sc=    1.19                       
MOD Single : A  99 LYS NZ  :NH3+    180:sc=       0   (180deg=0)          
MOD Single : A 100 ASN     :      amide:sc= -0.0267  K(o=-0.027,f=-1.6)   
MOD Single : A 106 SER OG  :   rot  101:sc=    1.58                       
MOD Single : A 109 SER OG A:   rot -109:sc=  -0.332                       
MOD Single : A 109 SER OG B:   rot  119:sc=    1.26                       
MOD Single : A 111 LYS NZ A:NH3+    155:sc=    1.27   (180deg=1.17)       
MOD Single : A 111 LYS NZ B:NH3+    180:sc=       0   (180deg=0)          
MOD Single : A 112 TYR OH  :   rot  180:sc=       0                       
MOD Single : A 114 THR OG1 :   rot  180:sc= 0.00377                       
MOD Single : A 115 THR OG1 :   rot   73:sc=   0.181                       
MOD Single : A 118 THR OG1 :   rot  180:sc=   0.113                       
MOD Single : A 123 SER OG  :   rot   74:sc=   0.347                       
MOD Single : A 128 GLN     :      amide:sc=   0.182  K(o=0.18,f=-0.58)    
MOD Single : A 129 TYR OH  :   rot  180:sc=       0                       
MOD Single : A 136 ASN     :      amide:sc=   0.599  K(o=0.6,f=-4.6!)     
MOD Single : A 140 LYS NZ  :NH3+   -179:sc=       0   (180deg=-0.000546)  
MOD Single : A 149 THR OG1 :   rot   78:sc=   0.665                       
MOD Single : A 154 SER OG  :   rot  -45:sc=    1.28                       
MOD Single : A 158 THR OG1 :   rot  180:sc=       0                       
MOD Single : A 159 THR OG1 :   rot  180:sc=       0                       
MOD Single : A 170 ASN     :      amide:sc=   0.653  K(o=0.65,f=0)        
MOD Single : A 171 SER OG  :   rot  140:sc=   0.346                       
MOD Single : A 180 THR OG1 :   rot  -84:sc=    1.47                       
MOD Single : A 181 SER OG  :   rot  180:sc=   0.172                       
MOD Single : A 182 SER OG  :   rot  180:sc=   0.342                       
MOD Single : A 187 THR OG1 :   rot -173:sc=  0.0355                       
MOD Single : A 189 SER OG  :   rot  149:sc=   0.935                       
MOD Single : A 191 GLN    A:      amide:sc=   -1.95! C(o=-1.9!,f=-6!)     
MOD Single : A 191 GLN    B:      amide:sc=   -1.02  K(o=-1,f=-2.2)       
MOD Single : A 192 LYS NZ  :NH3+    163:sc=   0.804   (180deg=0.667)      
MOD Single : A 194 THR OG1 :   rot  -70:sc=   0.601                       
MOD Single : A 197 SER OG  :   rot  180:sc=       0                       
MOD Single : A 203 GLN     :      amide:sc= -0.0772  K(o=-0.077,f=-3.5!)  
MOD Single : A 205 GLN     :      amide:sc=   0.418  K(o=0.42,f=-0.12)    
MOD Single : A 206 GLN     :      amide:sc=   0.226  X(o=0.23,f=-0.02)    
MOD Single : A 212 LYS NZ  :NH3+    180:sc=       0   (180deg=0)          
MOD Single : A 215 THR OG1 :   rot  -62:sc=   0.958                       
MOD Single : A 218 ASN     :      amide:sc=       0  K(o=0,f=-1)          
MOD Single : A 219 HIS     :     no HD1:sc=       0  X(o=0,f=0)           
MOD Single : A 237 THR OG1 :   rot  150:sc=   0.563                       
MOD Single : A 241 TYR OH  :   rot  180:sc=       0                       
MOD Single : A 243 THR OG1 :   rot   43:sc=   0.937                       
MOD Single : A 245 ASN     :      amide:sc=   -1.08  K(o=-1.1,f=-4.4!)    
MOD Single : A 247 TYR OH  :   rot -156:sc=    0.64                       
MOD Single : A 254 THR OG1 :   rot  180:sc=       0                       
MOD Single : A 265 THR OG1 :   rot   86:sc=   0.432                       
MOD Single : A 269 ASN     :      amide:sc= -0.0102  X(o=-0.01,f=-0.088)  
MOD Single : A 270 LYS NZ  :NH3+    180:sc=       0   (180deg=0)          
MOD Single : A 273 LYS NZ  :NH3+    180:sc=       0   (180deg=0)          
MOD Single : A 274 HIS     :     no HD1:sc=       0  X(o=0,f=0)           
MOD Single : A 275 SER OG  :   rot  130:sc=  -0.189                       
MOD Single : A 293 ASN     :      amide:sc= -0.0105  X(o=-0.011,f=-0.0083)
MOD Single : A 295 GLN     :      amide:sc=   0.804  K(o=0.8,f=-3.1!)     
MOD -----------------------------------------------------------------     

>  <HEADER>
    HYDROLASE                               24-JAN-17   5UL8              

>  <TITLE>
    APO KPC-2 BETA-LACTAMASE CRYSTAL STRUCTURE AT 1.15 ANGSTROM RESOLUTION

>  <COMPND>
    MOL_ID: 1;                                                            
   2 MOLECULE: CARBAPENEM-HYDROLYZING BETA-LACTAMASE KPC;                 
   3 CHAIN: A;                                                            
   4 SYNONYM: CARBAPENEM-HYDROLYZING BETA-LACTAMASE KPC-1;                
   5 EC: 3.5.2.6;                                                         
   6 ENGINEERED: YES                                                      

>  <SOURCE>
    MOL_ID: 1;                                                            
   2 ORGANISM_SCIENTIFIC: KLEBSIELLA PNEUMONIAE;                          
   3 ORGANISM_TAXID: 573;                                                 
   4 GENE: BLA, KPC, KPC1;                                                
   5 EXPRESSION_SYSTEM: ESCHERICHIA COLI;                                 
   6 EXPRESSION_SYSTEM_TAXID: 469008;                                     
   7 EXPRESSION_SYSTEM_STRAIN: BL21(DE3)                                  

>  <KEYWDS>
    BETA-LACTAMASE, CARBAPENEMASE, KLEBSIELLA, HIGH-RESOLUTION, HYDROLASE 

>  <EXPDTA>
    X-RAY DIFFRACTION                                                     

>  <AUTHOR>
    O.A.PEMBERTON,Y.CHEN                                                  

>  <REVDAT>
   4   11-DEC-19 5UL8    1       REMARK                                   
   3   20-SEP-17 5UL8    1       REMARK                                   
   2   10-MAY-17 5UL8    1       JRNL                                     
   1   26-APR-17 5UL8    0                                                

>  <JRNL>
      AUTH   O.A.PEMBERTON,X.ZHANG,Y.CHEN                                 
      TITL   MOLECULAR BASIS OF SUBSTRATE RECOGNITION AND PRODUCT RELEASE 
      TITL 2 BY THE KLEBSIELLA PNEUMONIAE CARBAPENEMASE (KPC-2).          
      REF    J. MED. CHEM.                 V.  60  3525 2017              
      REFN                   ISSN 1520-4804                               
      PMID   28388065                                                     
      DOI    10.1021/ACS.JMEDCHEM.7B00158                                 

>  <REMARK>
   2                                                                      
   2 RESOLUTION.    1.15 ANGSTROMS.                                       
   3                                                                      
   3 REFINEMENT.                                                          
   3   PROGRAM     : PHENIX 1.11.1_2575                                   
   3   AUTHORS     : PAUL ADAMS,PAVEL AFONINE,VINCENT CHEN,IAN            
   3               : DAVIS,KRESHNA GOPAL,RALF GROSSE-KUNSTLEVE,           
   3               : LI-WEI HUNG,ROBERT IMMORMINO,TOM IOERGER,            
   3               : AIRLIE MCCOY,ERIK MCKEE,NIGEL MORIARTY,              
   3               : REETAL PAI,RANDY READ,JANE RICHARDSON,               
   3               : DAVID RICHARDSON,TOD ROMO,JIM SACCHETTINI,           
   3               : NICHOLAS SAUTER,JACOB SMITH,LAURENT                  
   3               : STORONI,TOM TERWILLIGER,PETER ZWART                  
   3                                                                      
   3    REFINEMENT TARGET : ML                                            
   3                                                                      
   3  DATA USED IN REFINEMENT.                                            
   3   RESOLUTION RANGE HIGH (ANGSTROMS) : 1.15                           
   3   RESOLUTION RANGE LOW  (ANGSTROMS) : 32.14                          
   3   MIN(FOBS/SIGMA_FOBS)              : 0.460                          
   3   COMPLETENESS FOR RANGE        (%) : 96.8                           
   3   NUMBER OF REFLECTIONS             : 176093                         
   3                                                                      
   3  FIT TO DATA USED IN REFINEMENT.                                     
   3   R VALUE     (WORKING + TEST SET) : 0.123                           
   3   R VALUE            (WORKING SET) : 0.122                           
   3   FREE R VALUE                     : 0.139                           
   3   FREE R VALUE TEST SET SIZE   (%) : 5.050                           
   3   FREE R VALUE TEST SET COUNT      : 8886                            
   3                                                                      
   3  FIT TO DATA USED IN REFINEMENT (IN BINS).                           
   3   BIN  RESOLUTION RANGE  COMPL.    NWORK NFREE   RWORK  RFREE        
   3     1 32.1488 -  3.5718    0.98     5700   259  0.1451 0.1587        
   3     2  3.5718 -  2.8356    1.00     5777   298  0.1268 0.1307        
   3     3  2.8356 -  2.4773    1.00     5793   256  0.1123 0.1275        
   3     4  2.4773 -  2.2508    1.00     5769   302  0.1048 0.1320        
   3     5  2.2508 -  2.0895    1.00     5738   352  0.0976 0.1136        
   3     6  2.0895 -  1.9664    1.00     5716   322  0.0937 0.1073        
   3     7  1.9664 -  1.8679    1.00     5704   323  0.0936 0.1120        
   3     8  1.8679 -  1.7866    1.00     5767   315  0.0939 0.1162        
   3     9  1.7866 -  1.7178    1.00     5750   314  0.0921 0.1254        
   3    10  1.7178 -  1.6585    1.00     5764   307  0.0898 0.1076        
   3    11  1.6585 -  1.6067    1.00     5747   296  0.0851 0.1029        
   3    12  1.6067 -  1.5608    1.00     5769   335  0.0893 0.1159        
   3    13  1.5608 -  1.5197    1.00     5739   283  0.0929 0.1175        
   3    14  1.5197 -  1.4826    1.00     5767   310  0.0920 0.1228        
   3    15  1.4826 -  1.4489    1.00     5808   278  0.1105 0.1409        
   3    16  1.4489 -  1.4181    1.00     5753   276  0.1262 0.1571        
   3    17  1.4181 -  1.3897    1.00     5762   292  0.1304 0.1620        
   3    18  1.3897 -  1.3635    1.00     5759   323  0.1345 0.1608        
   3    19  1.3635 -  1.3391    1.00     5668   349  0.1314 0.1538        
   3    20  1.3391 -  1.3164    1.00     5841   302  0.1357 0.1523        
   3    21  1.3164 -  1.2952    1.00     5684   301  0.1406 0.1596        
   3    22  1.2952 -  1.2753    1.00     5764   306  0.1492 0.1701        
   3    23  1.2753 -  1.2565    1.00     5815   298  0.1569 0.1813        
   3    24  1.2565 -  1.2388    0.99     5644   316  0.1782 0.2027        
   3    25  1.2388 -  1.2221    0.96     5583   266  0.1977 0.2006        
   3    26  1.2221 -  1.2062    0.92     5298   244  0.2182 0.2241        
   3    27  1.2062 -  1.1911    0.88     5092   280  0.2347 0.2456        
   3    28  1.1911 -  1.1768    0.83     4766   271  0.2418 0.2318        
   3    29  1.1768 -  1.1631    0.77     4398   241  0.2670 0.2837        
   3    30  1.1631 -  1.1500    0.71     4072   271  0.2780 0.2972        
   3                                                                      
   3  BULK SOLVENT MODELLING.                                             
   3   METHOD USED        : FLAT BULK SOLVENT MODEL                       
   3   SOLVENT RADIUS     : 1.11                                          
   3   SHRINKAGE RADIUS   : 0.90                                          
   3   K_SOL              : NULL                                          
   3   B_SOL              : NULL                                          
   3                                                                      
   3  ERROR ESTIMATES.                                                    
   3   COORDINATE ERROR (MAXIMUM-LIKELIHOOD BASED)     : 0.110            
   3   PHASE ERROR (DEGREES, MAXIMUM-LIKELIHOOD BASED) : 12.920           
   3                                                                      
   3  B VALUES.                                                           
   3   FROM WILSON PLOT           (A**2) : 10.50                          
   3   MEAN B VALUE      (OVERALL, A**2) : 17.01                          
   3   OVERALL ANISOTROPIC B VALUE.                                       
   3    B11 (A**2) : NULL                                                 
   3    B22 (A**2) : NULL                                                 
   3    B33 (A**2) : NULL                                                 
   3    B12 (A**2) : NULL                                                 
   3    B13 (A**2) : NULL                                                 
   3    B23 (A**2) : NULL                                                 
   3                                                                      
   3  TWINNING INFORMATION.                                               
   3   FRACTION: NULL                                                     
   3   OPERATOR: NULL                                                     
   3                                                                      
   3  DEVIATIONS FROM IDEAL VALUES.                                       
   3                 RMSD          COUNT                                  
   3   BOND      :  0.009           2214                                  
   3   ANGLE     :  1.075           3037                                  
   3   CHIRALITY :  0.084            336                                  
   3   PLANARITY :  0.009            402                                  
   3   DIHEDRAL  : 12.906            797                                  
   3                                                                      
   3  TLS DETAILS                                                         
   3   NUMBER OF TLS GROUPS  : NULL                                       
   3                                                                      
   3  NCS DETAILS                                                         
   3   NUMBER OF NCS GROUPS : NULL                                        
   3                                                                      
   3  OTHER REFINEMENT REMARKS: NULL                                      
   4                                                                      
   4 5UL8 COMPLIES WITH FORMAT V. 3.30, 13-JUL-11                         
 100                                                                      
 100 THIS ENTRY HAS BEEN PROCESSED BY RCSB ON 26-JAN-17.                  
 100 THE DEPOSITION ID IS D_1000226062.                                   
 200                                                                      
 200 EXPERIMENTAL DETAILS                                                 
 200  EXPERIMENT TYPE                : X-RAY DIFFRACTION                  
 200  DATE OF DATA COLLECTION        : 11-JUN-14                          
 200  TEMPERATURE           (KELVIN) : 100                                
 200  PH                             : NULL                               
 200  NUMBER OF CRYSTALS USED        : 1                                  
 200                                                                      
 200  SYNCHROTRON              (Y/N) : Y                                  
 200  RADIATION SOURCE               : APS                                
 200  BEAMLINE                       : 22-ID                              
 200  X-RAY GENERATOR MODEL          : NULL                               
 200  MONOCHROMATIC OR LAUE    (M/L) : M                                  
 200  WAVELENGTH OR RANGE        (A) : 1.00                               
 200  MONOCHROMATOR                  : NULL                               
 200  OPTICS                         : NULL                               
 200                                                                      
 200  DETECTOR TYPE                  : CCD                                
 200  DETECTOR MANUFACTURER          : MARMOSAIC 300 MM CCD               
 200  INTENSITY-INTEGRATION SOFTWARE : IMOSFLM 7.2.1, MOSFLM              
 200  DATA SCALING SOFTWARE          : SCALA 3.3.22                       
 200                                                                      
 200  NUMBER OF UNIQUE REFLECTIONS   : 93824                              
 200  RESOLUTION RANGE HIGH      (A) : 1.150                              
 200  RESOLUTION RANGE LOW       (A) : 45.500                             
 200  REJECTION CRITERIA  (SIGMA(I)) : NULL                               
 200                                                                      
 200 OVERALL.                                                             
 200  COMPLETENESS FOR RANGE     (%) : 99.1                               
 200  DATA REDUNDANCY                : 6.500                              
 200  R MERGE                    (I) : 0.07800                            
 200  R SYM                      (I) : 0.07800                            
 200  <I/SIGMA(I)> FOR THE DATA SET  : 11.0000                            
 200                                                                      
 200 IN THE HIGHEST RESOLUTION SHELL.                                     
 200  HIGHEST RESOLUTION SHELL, RANGE HIGH (A) : 1.15                     
 200  HIGHEST RESOLUTION SHELL, RANGE LOW  (A) : 1.21                     
 200  COMPLETENESS FOR SHELL     (%) : 94.4                               
 200  DATA REDUNDANCY IN SHELL       : 3.30                               
 200  R MERGE FOR SHELL          (I) : 0.52500                            
 200  R SYM FOR SHELL            (I) : 0.04700                            
 200  <I/SIGMA(I)> FOR SHELL         : NULL                               
 200                                                                      
 200 DIFFRACTION PROTOCOL: SINGLE WAVELENGTH                              
 200 METHOD USED TO DETERMINE THE STRUCTURE: MOLECULAR REPLACEMENT        
 200 SOFTWARE USED: PHASER 2.7.16                                         
 200 STARTING MODEL: NULL                                                 
 200                                                                      
 200 REMARK: NULL                                                         
 280                                                                      
 280 CRYSTAL                                                              
 280 SOLVENT CONTENT, VS   (%): 42.61                                     
 280 MATTHEWS COEFFICIENT, VM (ANGSTROMS**3/DA): 2.14                     
 280                                                                      
 280 CRYSTALLIZATION CONDITIONS: 2.0 M AMMONIUM SULFATE, 5% (V/V)         
 280  ETHANOL, VAPOR DIFFUSION, HANGING DROP, TEMPERATURE 293.15K         
 290                                                                      
 290 CRYSTALLOGRAPHIC SYMMETRY                                            
 290 SYMMETRY OPERATORS FOR SPACE GROUP: P 2 21 21                        
 290                                                                      
 290      SYMOP   SYMMETRY                                                
 290     NNNMMM   OPERATOR                                                
 290       1555   X,Y,Z                                                   
 290       2555   X,-Y,-Z                                                 
 290       3555   -X,Y+1/2,-Z+1/2                                         
 290       4555   -X,-Y+1/2,Z+1/2                                         
 290                                                                      
 290     WHERE NNN -> OPERATOR NUMBER                                     
 290           MMM -> TRANSLATION VECTOR                                  
 290                                                                      
 290 CRYSTALLOGRAPHIC SYMMETRY TRANSFORMATIONS                            
 290 THE FOLLOWING TRANSFORMATIONS OPERATE ON THE ATOM/HETATM             
 290 RECORDS IN THIS ENTRY TO PRODUCE CRYSTALLOGRAPHICALLY                
 290 RELATED MOLECULES.                                                   
 290   SMTRY1   1  1.000000  0.000000  0.000000        0.00000            
 290   SMTRY2   1  0.000000  1.000000  0.000000        0.00000            
 290   SMTRY3   1  0.000000  0.000000  1.000000        0.00000            
 290   SMTRY1   2  1.000000  0.000000  0.000000        0.00000            
 290   SMTRY2   2  0.000000 -1.000000  0.000000        0.00000            
 290   SMTRY3   2  0.000000  0.000000 -1.000000        0.00000            
 290   SMTRY1   3 -1.000000  0.000000  0.000000        0.00000            
 290   SMTRY2   3  0.000000  1.000000  0.000000       30.10000            
 290   SMTRY3   3  0.000000  0.000000 -1.000000       39.31000            
 290   SMTRY1   4 -1.000000  0.000000  0.000000        0.00000            
 290   SMTRY2   4  0.000000 -1.000000  0.000000       30.10000            
 290   SMTRY3   4  0.000000  0.000000  1.000000       39.31000            
 290                                                                      
 290 REMARK: NULL                                                         
 300                                                                      
 300 BIOMOLECULE: 1                                                       
 300 SEE REMARK 350 FOR THE AUTHOR PROVIDED AND/OR PROGRAM                
 300 GENERATED ASSEMBLY INFORMATION FOR THE STRUCTURE IN                  
 300 THIS ENTRY. THE REMARK MAY ALSO PROVIDE INFORMATION ON               
 300 BURIED SURFACE AREA.                                                 
 350                                                                      
 350 COORDINATES FOR A COMPLETE MULTIMER REPRESENTING THE KNOWN           
 350 BIOLOGICALLY SIGNIFICANT OLIGOMERIZATION STATE OF THE                
 350 MOLECULE CAN BE GENERATED BY APPLYING BIOMT TRANSFORMATIONS          
 350 GIVEN BELOW.  BOTH NON-CRYSTALLOGRAPHIC AND                          
 350 CRYSTALLOGRAPHIC OPERATIONS ARE GIVEN.                               
 350                                                                      
 350 BIOMOLECULE: 1                                                       
 350 AUTHOR DETERMINED BIOLOGICAL UNIT: MONOMERIC                         
 350 SOFTWARE DETERMINED QUATERNARY STRUCTURE: MONOMERIC                  
 350 SOFTWARE USED: PISA                                                  
 350 TOTAL BURIED SURFACE AREA: 810 ANGSTROM**2                           
 350 SURFACE AREA OF THE COMPLEX: 11230 ANGSTROM**2                       
 350 CHANGE IN SOLVENT FREE ENERGY: -40.0 KCAL/MOL                        
 350 APPLY THE FOLLOWING TO CHAINS: A                                     
 350   BIOMT1   1  1.000000  0.000000  0.000000        0.00000            
 350   BIOMT2   1  0.000000  1.000000  0.000000        0.00000            
 350   BIOMT3   1  0.000000  0.000000  1.000000        0.00000            
 375                                                                      
 375 SPECIAL POSITION                                                     
 375 THE FOLLOWING ATOMS ARE FOUND TO BE WITHIN 0.15 ANGSTROMS            
 375 OF A SYMMETRY RELATED ATOM AND ARE ASSUMED TO BE ON SPECIAL          
 375 POSITIONS.                                                           
 375                                                                      
 375 ATOM RES CSSEQI                                                      
 375      HOH A 493  LIES ON A SPECIAL POSITION.                          
 465                                                                      
 465 MISSING RESIDUES                                                     
 465 THE FOLLOWING RESIDUES WERE NOT LOCATED IN THE                       
 465 EXPERIMENT. (M=MODEL NUMBER; RES=RESIDUE NAME; C=CHAIN               
 465 IDENTIFIER; SSSEQ=SEQUENCE NUMBER; I=INSERTION CODE.)                
 465                                                                      
 465   M RES C SSSEQI                                                     
 465     MET A     4                                                      
 465     GLY A     5                                                      
 465     SER A     6                                                      
 465     SER A     7                                                      
 465     HIS A     8                                                      
 465     HIS A     9                                                      
 465     HIS A    10                                                      
 465     HIS A    11                                                      
 465     HIS A    12                                                      
 465     HIS A    13                                                      
 465     SER A    14                                                      
 465     SER A    15                                                      
 465     GLY A    16                                                      
 465     LEU A    17                                                      
 465     VAL A    18                                                      
 465     PRO A    19                                                      
 465     ARG A    20                                                      
 465     GLY A    21                                                      
 465     SER A    22                                                      
 500                                                                      
 500 GEOMETRY AND STEREOCHEMISTRY                                         
 500 SUBTOPIC: CLOSE CONTACTS IN SAME ASYMMETRIC UNIT                     
 500                                                                      
 500 THE FOLLOWING ATOMS ARE IN CLOSE CONTACT.                            
 500                                                                      
 500  ATM1  RES C  SSEQI   ATM2  RES C  SSEQI           DISTANCE          
 500   O    HOH A   526     O    HOH A   606              2.05            
 500   O    HOH A   409     O    HOH A   641              2.12            
 500   O    HOH A   525     O    HOH A   647              2.12            
 500   O    HOH A   638     O    HOH A   728              2.12            
 500   O    HOH A   717     O    HOH A   731              2.18            
 500                                                                      
 500 REMARK: NULL                                                         
 500                                                                      
 500 GEOMETRY AND STEREOCHEMISTRY                                         
 500 SUBTOPIC: CLOSE CONTACTS                                             
 500                                                                      
 500 THE FOLLOWING ATOMS THAT ARE RELATED BY CRYSTALLOGRAPHIC             
 500 SYMMETRY ARE IN CLOSE CONTACT.  AN ATOM LOCATED WITHIN 0.15          
 500 ANGSTROMS OF A SYMMETRY RELATED ATOM IS ASSUMED TO BE ON A           
 500 SPECIAL POSITION AND IS, THEREFORE, LISTED IN REMARK 375             
 500 INSTEAD OF REMARK 500.  ATOMS WITH NON-BLANK ALTERNATE               
 500 LOCATION INDICATORS ARE NOT INCLUDED IN THE CALCULATIONS.            
 500                                                                      
 500 DISTANCE CUTOFF:                                                     
 500 2.2 ANGSTROMS FOR CONTACTS NOT INVOLVING HYDROGEN ATOMS              
 500 1.6 ANGSTROMS FOR CONTACTS INVOLVING HYDROGEN ATOMS                  
 500                                                                      
 500  ATM1  RES C  SSEQI   ATM2  RES C  SSEQI  SSYMOP   DISTANCE          
 500   OD1  ASP A   271     O    HOH A   631     2555     2.11            
 500                                                                      
 500 REMARK: NULL                                                         
 500                                                                      
 500 GEOMETRY AND STEREOCHEMISTRY                                         
 500 SUBTOPIC: TORSION ANGLES                                             
 500                                                                      
 500 TORSION ANGLES OUTSIDE THE EXPECTED RAMACHANDRAN REGIONS:            
 500 (M=MODEL NUMBER; RES=RESIDUE NAME; C=CHAIN IDENTIFIER;               
 500 SSEQ=SEQUENCE NUMBER; I=INSERTION CODE).                             
 500                                                                      
 500 STANDARD TABLE:                                                      
 500 FORMAT:(10X,I3,1X,A3,1X,A1,I4,A1,4X,F7.2,3X,F7.2)                    
 500                                                                      
 500 EXPECTED VALUES: GJ KLEYWEGT AND TA JONES (1996). PHI/PSI-           
 500 CHOLOGY: RAMACHANDRAN REVISITED. STRUCTURE 4, 1395 - 1400            
 500                                                                      
 500  M RES CSSEQI        PSI       PHI                                   
 500    CYS A  69     -142.32     51.73                                   
 500    TRP A 105       71.50     53.55                                   
 500    TRP A 105       55.65     70.69                                   
 500    ARG A 220     -126.26   -113.42                                   
 500                                                                      
 500 REMARK: NULL                                                         
 525                                                                      
 525 SOLVENT                                                              
 525                                                                      
 525 THE SOLVENT MOLECULES HAVE CHAIN IDENTIFIERS THAT                    
 525 INDICATE THE POLYMER CHAIN WITH WHICH THEY ARE MOST                  
 525 CLOSELY ASSOCIATED. THE REMARK LISTS ALL THE SOLVENT                 
 525 MOLECULES WHICH ARE MORE THAN 5A AWAY FROM THE                       
 525 NEAREST POLYMER CHAIN (M = MODEL NUMBER;                             
 525 RES=RESIDUE NAME; C=CHAIN IDENTIFIER; SSEQ=SEQUENCE                  
 525 NUMBER; I=INSERTION CODE):                                           
 525                                                                      
 525  M RES CSSEQI                                                        
 525    HOH A 743        DISTANCE =  6.00 ANGSTROMS                       
 525    HOH A 744        DISTANCE =  6.09 ANGSTROMS                       
 525    HOH A 745        DISTANCE =  6.27 ANGSTROMS                       
 525    HOH A 746        DISTANCE =  6.31 ANGSTROMS                       
 525    HOH A 747        DISTANCE =  6.33 ANGSTROMS                       
 525    HOH A 748        DISTANCE =  6.47 ANGSTROMS                       
 525    HOH A 749        DISTANCE =  6.54 ANGSTROMS                       
 525    HOH A 750        DISTANCE =  8.85 ANGSTROMS                       
 800                                                                      
 800 SITE                                                                 
 800 SITE_IDENTIFIER: AC1                                                 
 800 EVIDENCE_CODE: SOFTWARE                                              
 800 SITE_DESCRIPTION: binding site for residue SO4 A 301                 
 800                                                                      
 800 SITE_IDENTIFIER: AC2                                                 
 800 EVIDENCE_CODE: SOFTWARE                                              
 800 SITE_DESCRIPTION: binding site for residue SO4 A 302                 
 800                                                                      
 800 SITE_IDENTIFIER: AC3                                                 
 800 EVIDENCE_CODE: SOFTWARE                                              
 800 SITE_DESCRIPTION: binding site for residue SO4 A 303                 
 800                                                                      
 800 SITE_IDENTIFIER: AC4                                                 
 800 EVIDENCE_CODE: SOFTWARE                                              
 800 SITE_DESCRIPTION: binding site for residue SO4 A 304                 
 800                                                                      
 800 SITE_IDENTIFIER: AC5                                                 
 800 EVIDENCE_CODE: SOFTWARE                                              
 800 SITE_DESCRIPTION: binding site for residue GOL A 305                 
 900                                                                      
 900 RELATED ENTRIES                                                      
 900 RELATED ID: 5UJ3   RELATED DB: PDB                                   
 900 RELATED ID: 5UJ4   RELATED DB: PDB                                   

>  <DBREF>
 5UL8 A   25   295  UNP    Q9F663   BLKPC_KLEPN     25    293             

>  <SEQADV>
 5UL8 MET A    4  UNP  Q9F663              INITIATING METHIONINE          
 5UL8 GLY A    5  UNP  Q9F663              EXPRESSION TAG                 
 5UL8 SER A    6  UNP  Q9F663              EXPRESSION TAG                 
 5UL8 SER A    7  UNP  Q9F663              EXPRESSION TAG                 
 5UL8 HIS A    8  UNP  Q9F663              EXPRESSION TAG                 
 5UL8 HIS A    9  UNP  Q9F663              EXPRESSION TAG                 
 5UL8 HIS A   10  UNP  Q9F663              EXPRESSION TAG                 
 5UL8 HIS A   11  UNP  Q9F663              EXPRESSION TAG                 
 5UL8 HIS A   12  UNP  Q9F663              EXPRESSION TAG                 
 5UL8 HIS A   13  UNP  Q9F663              EXPRESSION TAG                 
 5UL8 SER A   14  UNP  Q9F663              EXPRESSION TAG                 
 5UL8 SER A   15  UNP  Q9F663              EXPRESSION TAG                 
 5UL8 GLY A   16  UNP  Q9F663              EXPRESSION TAG                 
 5UL8 LEU A   17  UNP  Q9F663              EXPRESSION TAG                 
 5UL8 VAL A   18  UNP  Q9F663              EXPRESSION TAG                 
 5UL8 PRO A   19  UNP  Q9F663              EXPRESSION TAG                 
 5UL8 ARG A   20  UNP  Q9F663              EXPRESSION TAG                 
 5UL8 GLY A   21  UNP  Q9F663              EXPRESSION TAG                 
 5UL8 SER A   22  UNP  Q9F663              EXPRESSION TAG                 
 5UL8 HIS A   23  UNP  Q9F663              EXPRESSION TAG                 
 5UL8 MET A   24  UNP  Q9F663              EXPRESSION TAG                 

>  <SEQRES>
   1 A  290  MET GLY SER SER HIS HIS HIS HIS HIS HIS SER SER GLY          
   2 A  290  LEU VAL PRO ARG GLY SER HIS MET LEU THR ASN LEU VAL          
   3 A  290  ALA GLU PRO PHE ALA LYS LEU GLU GLN ASP PHE GLY GLY          
   4 A  290  SER ILE GLY VAL TYR ALA MET ASP THR GLY SER GLY ALA          
   5 A  290  THR VAL SER TYR ARG ALA GLU GLU ARG PHE PRO LEU CYS          
   6 A  290  SER SER PHE LYS GLY PHE LEU ALA ALA ALA VAL LEU ALA          
   7 A  290  ARG SER GLN GLN GLN ALA GLY LEU LEU ASP THR PRO ILE          
   8 A  290  ARG TYR GLY LYS ASN ALA LEU VAL PRO TRP SER PRO ILE          
   9 A  290  SER GLU LYS TYR LEU THR THR GLY MET THR VAL ALA GLU          
  10 A  290  LEU SER ALA ALA ALA VAL GLN TYR SER ASP ASN ALA ALA          
  11 A  290  ALA ASN LEU LEU LEU LYS GLU LEU GLY GLY PRO ALA GLY          
  12 A  290  LEU THR ALA PHE MET ARG SER ILE GLY ASP THR THR PHE          
  13 A  290  ARG LEU ASP ARG TRP GLU LEU GLU LEU ASN SER ALA ILE          
  14 A  290  PRO GLY ASP ALA ARG ASP THR SER SER PRO ARG ALA VAL          
  15 A  290  THR GLU SER LEU GLN LYS LEU THR LEU GLY SER ALA LEU          
  16 A  290  ALA ALA PRO GLN ARG GLN GLN PHE VAL ASP TRP LEU LYS          
  17 A  290  GLY ASN THR THR GLY ASN HIS ARG ILE ARG ALA ALA VAL          
  18 A  290  PRO ALA ASP TRP ALA VAL GLY ASP LYS THR GLY THR CYS          
  19 A  290  GLY VAL TYR GLY THR ALA ASN ASP TYR ALA VAL VAL TRP          
  20 A  290  PRO THR GLY ARG ALA PRO ILE VAL LEU ALA VAL TYR THR          
  21 A  290  ARG ALA PRO ASN LYS ASP ASP LYS HIS SER GLU ALA VAL          
  22 A  290  ILE ALA ALA ALA ALA ARG LEU ALA LEU GLU GLY LEU GLY          
  23 A  290  VAL ASN GLY GLN                                              

>  <HET>
 SO4  A 301       5                                                       
 SO4  A 302       5                                                       
 SO4  A 303       5                                                       
 SO4  A 304       5                                                       
 GOL  A 305      14                                                       

>  <HETNAM>
     SO4 SULFATE ION                                                      
     GOL GLYCEROL                                                         

>  <HETSYN>
     GOL GLYCERIN; PROPANE-1,2,3-TRIOL                                    

>  <FORMUL>
   2  SO4    4(O4 S 2-)                                                   
   6  GOL    C3 H8 O3                                                     
   7  HOH   *350(H2 O)                                                    

>  <HELIX>
   1   1 PRO A   32  GLY A   41  1                                  10    
   2   2 SER A   71  GLN A   87  1                                  17    
   3   3 GLY A   98  LEU A  102  1                                   5    
   4   4 ILE A  108  LEU A  113  1                                   6    
   5   5 VAL A  119  TYR A  129  1                                  11    
   6   6 ASP A  131  LEU A  142  1                                  12    
   7   7 GLY A  144  ILE A  155  1                                  12    
   8   8 LEU A  167  SER A  171  1                                   5    
   9   9 SER A  182  LEU A  195  1                                  14    
  10  10 ALA A  200  GLY A  213  1                                  14    
  11  11 ARG A  220  VAL A  225  1                                   6    
  12  12 SER A  275  LEU A  290  1                                  16    

>  <SHEET>
   1   1 1 SER A  43  ASP A  50  0                                        
   2   2 1 THR A  56  TYR A  60  0                                        
   3   3 1 PHE A  66  PRO A  67  0                                        
   4   4 1 PRO A  94  ILE A  95  0                                        
   5   5 1 MET A 117  THR A 118  0                                        
   6   6 1 THR A 180  SER A 181  0                                        
   7   7 1 ALA A 230  THR A 237  0                                        
   8   8 1 ALA A 244  TRP A 251  0                                        
   9   9 1 ILE A 259  ARG A 266  0                                        

>  <SSBOND>
 *** CYS A   69    CYS A  238                          1555   1555  2.07  

>  <CISPEP>
   1 GLU A  166    LEU A  167          0         6.13                     

>  <SITE>
 *** AC1 10 SER A  70  SER A 130  THR A 216  THR A 235                    
 *** AC1 10 GLY A 236  THR A 237  HOH A 410  HOH A 435                    
 *** AC1 10 HOH A 507  HOH A 612                                          
 *** AC2  7 SER A 275  GLU A 276  ALA A 277  HOH A 422                    
 *** AC2  7 HOH A 475  HOH A 497  HOH A 513                               
 *** AC3  4 ARG A  61  THR A 254  GLY A 255  HOH A 478                    
 *** AC4  7 HIS A  23  ARG A 184  PRO A 226  ALA A 227                    
 *** AC4  7 GLN A 295  HOH A 459  HOH A 626                               
 *** AC5  7 GLN A 205  LYS A 212  ALA A 230  TRP A 251                    
 *** AC5  7 HOH A 420  HOH A 442  HOH A 490                               

>  <ORIGX1>
      1.000000  0.000000  0.000000        0.00000                         

>  <ORIGX2>
      0.000000  1.000000  0.000000        0.00000                         

>  <ORIGX3>
      0.000000  0.000000  1.000000        0.00000                         

>  <SCALE1>
      0.017921  0.000000  0.000000        0.00000                         

>  <SCALE2>
      0.000000  0.016611  0.000000        0.00000                         

>  <SCALE3>
      0.000000  0.000000  0.012719        0.00000                         

>  <ANISOU>
    1  N   SER A  70      841    557   1954     46   -116     -3       N  
    2  CA  SER A  70      845    630   2059    -14      0     12       C  
    3  C   SER A  70      775    533   1892   -120   -116    -57       C  
    4  O   SER A  70      869    613   2093   -126   -194   -137       O  
    5  CB  SER A  70      962    721   2163     53     98    114       C  
    6  OG  SER A  70     1470    834   2398    177    305    176       O  

$$$$
