APO_1K55_ADT_SER.pdb
 OpenBabel08222315043D

  8  7  0  0  1  0  0  0  0  0999 V2000
   19.0840    5.6510   35.6630 N   0  0  0  0  0  0  0  0  0  0  0  0
   17.9240    6.5250   35.7290 C   0  0  2  0  0  0  0  0  0  0  0  0
   17.9050    7.5310   36.8640 C   0  0  0  0  0  0  0  0  0  0  0  0
   17.0310    8.3960   36.9020 O   0  0  0  0  0  0  0  0  0  0  0  0
   16.6420    5.7270   35.6840 C   0  0  0  0  0  0  0  0  0  0  0  0
   16.5460    5.1160   34.4100 O   0  0  0  0  0  0  0  0  0  0  0  0
   18.9340    4.8220   35.8340 H   0  0  0  0  0  0  0  0  0  0  0  0
   16.9350    5.5950   33.8400 H   0  0  0  0  0  0  0  0  0  0  0  0
  1  2  1  0  0  0  0
  1  7  1  0  0  0  0
  2  5  1  1  0  0  0
  2  3  1  0  0  0  0
  3  4  2  0  0  0  0
  6  5  1  0  0  0  0
  8  6  1  0  0  0  0
M  END
>  <REMARK>
   4 XXXX COMPLIES WITH FORMAT V. 2.0                                     

>  <MODRES>
 1K55 KCX A   70  LYS  LYSINE NZ-CARBOXYLIC ACID                          
 1K55 KCX B   70  LYS  LYSINE NZ-CARBOXYLIC ACID                          
 1K55 KCX C   70  LYS  LYSINE NZ-CARBOXYLIC ACID                          
 1K55 KCX D   70  LYS  LYSINE NZ-CARBOXYLIC ACID                          

$$$$
