APO_6T3D_chimeraFH_SER.pdb
 OpenBabel08212313463D

 11 10  0  0  1  0  0  0  0  0999 V2000
  -14.0220   10.1600   25.8650 N   0  0  0  0  0  0  0  0  0  0  0  0
  -15.3560    9.6400   26.1480 C   0  0  2  0  0  0  0  0  0  0  0  0
  -15.4860    8.1280   26.0160 C   0  0  0  0  0  0  0  0  0  0  0  0
  -16.5200    7.5910   26.4180 O   0  0  0  0  0  0  0  0  0  0  0  0
  -16.3870   10.3010   25.2370 C   0  0  0  0  0  0  0  0  0  0  0  0
  -16.6100   11.6500   25.6580 O   0  0  0  0  0  0  0  0  0  0  0  0
  -13.9640   10.6300   25.1470 H   0  0  0  0  0  0  0  0  0  0  0  0
  -15.5190    9.8560   27.0800 H   0  0  0  0  0  0  0  0  0  0  0  0
  -16.0760   10.2870   24.3180 H   0  0  0  0  0  0  0  0  0  0  0  0
  -17.2190    9.8040   25.2620 H   0  0  0  0  0  0  0  0  0  0  0  0
  -16.6810   12.1460   24.9840 H   0  0  0  0  0  0  0  0  0  0  0  0
  1  2  1  0  0  0  0
  2  8  1  1  0  0  0
  3  2  1  0  0  0  0
  3  4  2  0  0  0  0
  5 10  1  0  0  0  0
  5  6  1  0  0  0  0
  5  2  1  0  0  0  0
  7  1  1  0  0  0  0
  9  5  1  0  0  0  0
 11  6  1  0  0  0  0
M  END
>  <>
                                                                          

>  <USER>
MOD reduce.3.7.201124 H: found=0, std=0, add=2968, rem=0, adj=70          
MOD -----------------------------------------------------------------     
MOD scores for adjustable sidechains, with "set" totals for H,N and Q     
MOD "o" means original, "f" means flipped, "180deg" is methyl default     
MOD "!" flags a clash with an overlap of 0.40A or greater                 
MOD flip categories: "K"=keep, "C"=clashes, "X"=uncertain, "F"=flip       
MOD Set 1.1: A 358 ASN     :      amide:sc=  -0.093  K(o=0.11,f=-0.83)    
MOD Set 1.2: A 361 GLN     :      amide:sc=   0.204  K(o=0.11,f=-0.57)    
MOD Set 2.1: A  64 SER OG  :   rot  140:sc=  0.0342                       
MOD Set 2.2: A  67 LYS NZ  :NH3+    176:sc=    1.77   (180deg=0.271)      
MOD Set 2.3: A 120 GLN     :FLIP  amide:sc=   -2.63! C(o=-7.9!,f=0.24!)   
MOD Set 2.4: A 150 TYR OH  :   rot  170:sc=   0.414                       
MOD Set 2.5: A 152 ASN     :      amide:sc=   -1.12! C(o=0.24!,f=-9.3!)   
MOD Set 2.6: A 315 LYS NZ  :NH3+    179:sc=    1.78   (180deg=0.707)      
MOD Set 3.1: A 314 HIS     :     no HD1:sc=   0.878  K(o=2.3,f=-6.8!)     
MOD Set 3.2: A 325 TYR OH  :   rot  -12:sc=    1.39                       
MOD Set 4.1: A 261 GLN     :      amide:sc=  0.0925  K(o=0.093,f=-0.7)    
MOD Set 4.2: A 266 TYR OH  :   rot  180:sc=       0                       
MOD Set 5.1: A 187 THR OG1 :   rot   65:sc=    1.71                       
MOD Set 5.2: A 225 SER OG  :   rot   89:sc=    0.85                       
MOD Set 6.1: A 105 THR OG1 :   rot  -65:sc=   0.128                       
MOD Set 6.2: A 108 HIS     :     no HD1:sc=   0.231  K(o=1.6,f=-2.3!)     
MOD Set 6.3: A 111 THR OG1 :   rot  -70:sc=    1.55                       
MOD Set 6.4: A 113 THR OG1 :   rot  -95:sc=  -0.339                       
MOD Set 7.1: A  55 THR OG1 :   rot  180:sc=   0.194                       
MOD Set 7.2: A  58 THR OG1 :   rot -120:sc=   0.731                       
MOD Set 8.1: A  13 HIS     :     no HD1:sc=  -0.131  X(o=-0.08,f=0.02)    
MOD Set 8.2: A  17 THR OG1 :   rot  154:sc=  0.0513                       
MOD Single : A   6 GLN     :      amide:sc=-0.000648  K(o=-0.00065,f=-0.92)
MOD Single : A   7 GLN     :      amide:sc=       0  K(o=0,f=-0.9)        
MOD Single : A   9 ASN     :      amide:sc=  -0.117  K(o=-0.12,f=-1.8!)   
MOD Single : A  15 THR OG1 :   rot   86:sc=   0.705                       
MOD Single : A  22 GLN     :      amide:sc= -0.0623  K(o=-0.062,f=-0.95)  
MOD Single : A  23 GLN     :      amide:sc=  -0.101  K(o=-0.1,f=-1)       
MOD Single : A  24 LYS NZ  :NH3+    180:sc=       0   (180deg=0)          
MOD Single : A  34 TYR OH  :   rot  180:sc=       0                       
MOD Single : A  35 GLN    A:      amide:sc=       0  K(o=0,f=-0.77)       
MOD Single : A  35 GLN    B:      amide:sc=  -0.105  X(o=-0.11,f=-0.11)   
MOD Single : A  37 LYS NZ  :NH3+    177:sc=       0   (180deg=-0.00762)   
MOD Single : A  39 TYR OH  :   rot  180:sc= -0.0421                       
MOD Single : A  40 TYR OH  :   rot  180:sc=       0                       
MOD Single : A  42 THR OG1 :   rot  180:sc=       0                       
MOD Single : A  45 TYR OH  :   rot  180:sc=       0                       
MOD Single : A  50 LYS NZ A:NH3+    142:sc=    1.09   (180deg=0.2)        
MOD Single : A  50 LYS NZ B:NH3+    180:sc=       0   (180deg=0)          
MOD Single : A  51 LYS NZ  :NH3+    180:sc=       0   (180deg=0)          
MOD Single : A  52 GLN     :FLIP  amide:sc=   -1.98! C(o=-3.2!,f=-2!)     
MOD Single : A  56 GLN     :      amide:sc=   0.653  K(o=0.65,f=-0.13)    
MOD Single : A  57 GLN     :      amide:sc=   -0.14  X(o=-0.14,f=-0.17)   
MOD Single : A  66 SER OG  :   rot   82:sc=    1.54                       
MOD Single : A  68 THR OG1 :   rot  -67:sc=    0.83                       
MOD Single : A  70 THR OG1 :   rot  163:sc=    1.25                       
MOD Single : A  84 LYS NZ  :NH3+    180:sc=       0   (180deg=0)          
MOD Single : A  86 SER OG  :   rot  180:sc=       0                       
MOD Single : A  89 THR OG1 :   rot   78:sc=   0.253                       
MOD Single : A  90 THR OG1 :   rot  180:sc=       0                       
MOD Single : A  91 LYS NZ  :NH3+    180:sc=       0   (180deg=0)          
MOD Single : A  92 TYR OH  :   rot  145:sc=    1.15                       
MOD Single : A  97 THR OG1 :   rot  180:sc=       0                       
MOD Single : A  99 LYS NZ  :NH3+    180:sc=       0   (180deg=0)          
MOD Single : A 100 GLN     :      amide:sc=   0.769  K(o=0.77,f=-7.6!)    
MOD Single : A 102 ASN     :      amide:sc=   -1.24! C(o=-1.2!,f=-6.5!)   
MOD Single : A 112 TYR OH  :   rot  -94:sc=  -0.173                       
MOD Single : A 126 LYS NZ  :NH3+    180:sc=       0   (180deg=0)          
MOD Single : A 127 SER OG  :   rot  180:sc=-0.00552                       
MOD Single : A 128 SER OG  :   rot  180:sc=       0                       
MOD Single : A 129 SER OG  :   rot  180:sc=       0                       
MOD Single : A 135 TYR OH  :   rot  -16:sc=    1.22                       
MOD Single : A 136 GLN     :FLIP  amide:sc=   -7.27! C(o=-9.6!,f=-7.3!)   
MOD Single : A 137 ASN     :      amide:sc=-0.000205  X(o=-0.00021,f=-0.46)
MOD Single : A 139 GLN     :      amide:sc=       0  K(o=0,f=-1!)         
MOD Single : A 146 THR OG1 :   rot  -83:sc=    1.31                       
MOD Single : A 147 GLN     :      amide:sc=  -0.143  K(o=-0.14,f=-1.5!)   
MOD Single : A 153 SER OG  :   rot  -94:sc=    0.74                       
MOD Single : A 154 SER OG  :   rot  -69:sc=     1.1                       
MOD Single : A 164 LYS NZ  :NH3+   -152:sc=   -8.51!  (180deg=-10.9!)     
MOD Single : A 166 SER OG  :   rot  -44:sc=    1.49                       
MOD Single : A 169 SER OG  :   rot  180:sc=  0.0924                       
MOD Single : A 172 GLN     :      amide:sc=       0  K(o=0,f=-1)          
MOD Single : A 175 GLN    A:      amide:sc=  -0.113  K(o=-0.11,f=-0.72)   
MOD Single : A 175 GLN    B:      amide:sc=-0.00954  K(o=-0.0095,f=-1.1)  
MOD Single : A 176 THR OG1A:   rot  180:sc=       0                       
MOD Single : A 176 THR OG1B:   rot  -74:sc=   0.475                       
MOD Single : A 180 GLN     :      amide:sc=   -1.36  K(o=-1.4,f=-2.5!)    
MOD Single : A 183 LYS NZ  :NH3+    180:sc=       0   (180deg=0)          
MOD Single : A 185 ASN     :      amide:sc=       0  X(o=0,f=-0.32)       
MOD Single : A 186 HIS     :     no HD1:sc=       0  X(o=0,f=-0.02)       
MOD Single : A 190 ASN     :      amide:sc= -0.0126  X(o=-0.013,f=0)      
MOD Single : A 197 LYS NZ  :NH3+    180:sc=       0   (180deg=0)          
MOD Single : A 198 ASN     :      amide:sc=       0  X(o=0,f=0)           
MOD Single : A 199 TYR OH  :   rot  -28:sc=    1.33                       
MOD Single : A 203 TYR OH  :   rot  100:sc=   0.734                       
MOD Single : A 207 LYS NZ  :NH3+    180:sc=       0   (180deg=0)          
MOD Single : A 210 HIS     :     no HD1:sc=   0.769  K(o=0.77,f=-3.1!)    
MOD Single : A 212 SER OG  :   rot  180:sc=       0                       
MOD Single : A 221 TYR OH  :   rot  180:sc=       0                       
MOD Single : A 224 LYS NZ  :NH3+    164:sc=   0.593   (180deg=0.489)      
MOD Single : A 226 THR OG1 :   rot  180:sc=    0.22                       
MOD Single : A 235 GLN     :      amide:sc=  -0.158  K(o=-0.16,f=-2!)     
MOD Single : A 236 SER OG  :   rot   72:sc=   0.718                       
MOD Single : A 237 ASN     :      amide:sc=   0.772  K(o=0.77,f=-0.49)    
MOD Single : A 239 LYS NZ A:NH3+    138:sc=   0.512   (180deg=-0.497)     
MOD Single : A 239 LYS NZ B:NH3+    180:sc=       0   (180deg=0)          
MOD Single : A 244 ASN     :      amide:sc=-0.00675  K(o=-0.0068,f=-1)    
MOD Single : A 246 LYS NZ A:NH3+    180:sc=       0   (180deg=0)          
MOD Single : A 246 LYS NZ B:NH3+    180:sc=       0   (180deg=0)          
MOD Single : A 247 THR OG1 :   rot   83:sc=   0.641                       
MOD Single : A 249 GLN     :      amide:sc=       0  X(o=0,f=0.23)        
MOD Single : A 250 GLN     :      amide:sc=       0  K(o=0,f=-0.7)        
MOD Single : A 253 GLN     :      amide:sc= -0.0441  K(o=-0.044,f=-1.3)   
MOD Single : A 256 GLN     :      amide:sc=   0.111  X(o=0.11,f=0)        
MOD Single : A 257 SER OG  :   rot  180:sc=       0                       
MOD Single : A 259 TYR OH  :   rot  -13:sc=    0.79                       
MOD Single : A 262 THR OG1 :   rot  101:sc=   0.204                       
MOD Single : A 267 GLN     :      amide:sc=    0.82  K(o=0.82,f=-6.9!)    
MOD Single : A 279 ASN     :      amide:sc=  -0.759  K(o=-0.76,f=-5.5!)   
MOD Single : A 282 SER OG A:   rot  154:sc=   0.723                       
MOD Single : A 282 SER OG B:   rot -158:sc= 0.00979                       
MOD Single : A 285 ASN     :      amide:sc= -0.0445  K(o=-0.045,f=-0.57)  
MOD Single : A 287 SER OG  :   rot  -59:sc=    0.81                       
MOD Single : A 289 ASN     :      amide:sc= -0.0839  K(o=-0.084,f=-1.4!)  
MOD Single : A 290 LYS NZ  :NH3+    180:sc=       0   (180deg=0)          
MOD Single : A 299 LYS NZ  :NH3+    180:sc=       0   (180deg=0)          
MOD Single : A 302 THR OG1 :   rot  180:sc=       0                       
MOD Single : A 305 THR OG1 :   rot  180:sc=  -0.117                       
MOD Single : A 311 SER OG  :   rot   97:sc=    1.67                       
MOD Single : A 316 THR OG1 :   rot  180:sc=       0                       
MOD Single : A 319 THR OG1 :   rot  172:sc=    0.94                       
MOD Single : A 324 SER OG A:   rot -151:sc=   0.429                       
MOD Single : A 324 SER OG B:   rot  127:sc=       0                       
MOD Single : A 332 LYS NZ  :NH3+    180:sc=       0   (180deg=0)          
MOD Single : A 341 ASN     :      amide:sc=   0.254  K(o=0.25,f=-6.5!)    
MOD Single : A 342 LYS NZ  :NH3+   -124:sc=    1.13   (180deg=-0.407)     
MOD Single : A 343 ASN     :      amide:sc=  -0.271  K(o=-0.27,f=-2.2)    
MOD Single : A 344 TYR OH  :   rot  180:sc=       0                       
MOD Single : A 346 ASN     :      amide:sc= 0.00331  K(o=0.0033,f=-0.94)  
MOD Single : A 355 GLN     :      amide:sc=  -0.161  X(o=-0.16,f=-0.47)   
MOD -----------------------------------------------------------------     

>  <HEADER>
    HYDROLASE                               10-OCT-19   6T3D              

>  <TITLE>
    CRYSTAL STRUCTURE OF AMPC FROM E.COLI                                 

>  <COMPND>
    MOL_ID: 1;                                                            
   2 MOLECULE: BETA-LACTAMASE;                                            
   3 CHAIN: A;                                                            
   4 SYNONYM: CEPHALOSPORINASE;                                           
   5 EC: 3.5.2.6;                                                         
   6 ENGINEERED: YES                                                      

>  <SOURCE>
    MOL_ID: 1;                                                            
   2 ORGANISM_SCIENTIFIC: ESCHERICHIA COLI K-12;                          
   3 ORGANISM_TAXID: 83333;                                               
   4 GENE: AMPC, AMPA, B4150, JW4111;                                     
   5 EXPRESSION_SYSTEM: ESCHERICHIA COLI STR. K-12 SUBSTR. W3110;         
   6 EXPRESSION_SYSTEM_TAXID: 316407                                      

>  <KEYWDS>
    BETA LACTAMASE, ANTIBIOTIC RESISTANCE, HYDROLASE                      

>  <EXPDTA>
    X-RAY DIFFRACTION                                                     

>  <AUTHOR>
    P.A.LANG,T.M.LEISSING,C.J.SCHOFIELD,J.BREM                            

>  <REVDAT>
   3   30-SEP-20 6T3D    1       JRNL   LINK                              
   2   01-JUL-20 6T3D    1       JRNL                                     
   1   24-JUN-20 6T3D    0                                                

>  <JRNL>
      AUTH   P.A.LANG,A.PARKOVA,T.M.LEISSING,K.CALVOPINA,R.CAIN,A.KRAJNC, 
      AUTH 2 T.D.PANDUWAWALA,J.PHILIPPE,C.W.G.FISHWICK,P.TRAPENCIERIS,    
      AUTH 3 M.G.P.PAGE,C.J.SCHOFIELD,J.BREM                              
      TITL   BICYCLIC BORONATES AS POTENT INHIBITORS OF AMPC, THE CLASS C 
      TITL 2 BETA-LACTAMASE FROM ESCHERICHIA COLI .                       
      REF    BIOMOLECULES                  V.  10       2020              
      REFN                   ESSN 2218-273X                               
      PMID   32545682                                                     
      DOI    10.3390/BIOM10060899                                         

>  <REMARK>
   2                                                                      
   2 RESOLUTION.    1.50 ANGSTROMS.                                       
   3                                                                      
   3 REFINEMENT.                                                          
   3   PROGRAM     : PHENIX 1.15.2                                        
   3   AUTHORS     : PAUL ADAMS,PAVEL AFONINE,VINCENT CHEN,IAN            
   3               : DAVIS,KRESHNA GOPAL,RALF GROSSE-KUNSTLEVE,           
   3               : LI-WEI HUNG,ROBERT IMMORMINO,TOM IOERGER,            
   3               : AIRLIE MCCOY,ERIK MCKEE,NIGEL MORIARTY,              
   3               : REETAL PAI,RANDY READ,JANE RICHARDSON,               
   3               : DAVID RICHARDSON,TOD ROMO,JIM SACCHETTINI,           
   3               : NICHOLAS SAUTER,JACOB SMITH,LAURENT                  
   3               : STORONI,TOM TERWILLIGER,PETER ZWART                  
   3                                                                      
   3    REFINEMENT TARGET : NULL                                          
   3                                                                      
   3  DATA USED IN REFINEMENT.                                            
   3   RESOLUTION RANGE HIGH (ANGSTROMS) : 1.50                           
   3   RESOLUTION RANGE LOW  (ANGSTROMS) : 49.21                          
   3   MIN(FOBS/SIGMA_FOBS)              : 1.340                          
   3   COMPLETENESS FOR RANGE        (%) : 100.0                          
   3   NUMBER OF REFLECTIONS             : 73797                          
   3                                                                      
   3  FIT TO DATA USED IN REFINEMENT.                                     
   3   R VALUE     (WORKING + TEST SET) : 0.159                           
   3   R VALUE            (WORKING SET) : 0.158                           
   3   FREE R VALUE                     : 0.178                           
   3   FREE R VALUE TEST SET SIZE   (%) : 5.020                           
   3   FREE R VALUE TEST SET COUNT      : 3702                            
   3                                                                      
   3  FIT TO DATA USED IN REFINEMENT (IN BINS).                           
   3   BIN  RESOLUTION RANGE  COMPL.    NWORK NFREE   RWORK  RFREE        
   3     1 49.2080 -  4.4428    1.00     2991   150  0.1673 0.1712        
   3     2  4.4428 -  3.5267    1.00     2806   150  0.1362 0.1764        
   3     3  3.5267 -  3.0810    1.00     2760   131  0.1580 0.1722        
   3     4  3.0810 -  2.7993    1.00     2758   135  0.1562 0.1732        
   3     5  2.7993 -  2.5987    1.00     2723   150  0.1541 0.1608        
   3     6  2.5987 -  2.4455    1.00     2706   149  0.1492 0.1671        
   3     7  2.4455 -  2.3230    1.00     2696   150  0.1460 0.1591        
   3     8  2.3230 -  2.2219    1.00     2687   148  0.1548 0.1712        
   3     9  2.2219 -  2.1363    1.00     2690   150  0.1479 0.1716        
   3    10  2.1363 -  2.0626    1.00     2684   154  0.1545 0.1895        
   3    11  2.0626 -  1.9981    1.00     2683   138  0.1574 0.1675        
   3    12  1.9981 -  1.9410    1.00     2706   112  0.1565 0.1851        
   3    13  1.9410 -  1.8899    1.00     2674   136  0.1609 0.1712        
   3    14  1.8899 -  1.8438    1.00     2685   134  0.1578 0.1621        
   3    15  1.8438 -  1.8019    1.00     2666   141  0.1516 0.1807        
   3    16  1.8019 -  1.7635    1.00     2648   153  0.1588 0.1896        
   3    17  1.7635 -  1.7282    1.00     2672   130  0.1700 0.2048        
   3    18  1.7282 -  1.6956    1.00     2665   128  0.1769 0.2279        
   3    19  1.6956 -  1.6653    1.00     2632   159  0.1950 0.1974        
   3    20  1.6653 -  1.6371    1.00     2657   147  0.2007 0.2241        
   3    21  1.6371 -  1.6107    1.00     2663   150  0.2120 0.2589        
   3    22  1.6107 -  1.5859    1.00     2631   141  0.2202 0.2366        
   3    23  1.5859 -  1.5626    1.00     2631   150  0.2269 0.2564        
   3    24  1.5626 -  1.5406    1.00     2641   152  0.2441 0.3056        
   3    25  1.5406 -  1.5198    1.00     2657   144  0.2820 0.2949        
   3    26  1.5198 -  1.5000    1.00     2683   120  0.2998 0.3132        
   3                                                                      
   3  BULK SOLVENT MODELLING.                                             
   3   METHOD USED        : NULL                                          
   3   SOLVENT RADIUS     : 1.11                                          
   3   SHRINKAGE RADIUS   : 0.90                                          
   3   K_SOL              : NULL                                          
   3   B_SOL              : NULL                                          
   3                                                                      
   3  ERROR ESTIMATES.                                                    
   3   COORDINATE ERROR (MAXIMUM-LIKELIHOOD BASED)     : 0.150            
   3   PHASE ERROR (DEGREES, MAXIMUM-LIKELIHOOD BASED) : 16.980           
   3                                                                      
   3  B VALUES.                                                           
   3   FROM WILSON PLOT           (A**2) : NULL                           
   3   MEAN B VALUE      (OVERALL, A**2) : 37.09                          
   3   OVERALL ANISOTROPIC B VALUE.                                       
   3    B11 (A**2) : NULL                                                 
   3    B22 (A**2) : NULL                                                 
   3    B33 (A**2) : NULL                                                 
   3    B12 (A**2) : NULL                                                 
   3    B13 (A**2) : NULL                                                 
   3    B23 (A**2) : NULL                                                 
   3                                                                      
   3  TWINNING INFORMATION.                                               
   3   FRACTION: NULL                                                     
   3   OPERATOR: NULL                                                     
   3                                                                      
   3  DEVIATIONS FROM IDEAL VALUES.                                       
   3                 RMSD          COUNT                                  
   3   BOND      :   NULL           NULL                                  
   3   ANGLE     :   NULL           NULL                                  
   3   CHIRALITY :   NULL           NULL                                  
   3   PLANARITY :   NULL           NULL                                  
   3   DIHEDRAL  :   NULL           NULL                                  
   3                                                                      
   3  TLS DETAILS                                                         
   3   NUMBER OF TLS GROUPS  : 10                                         
   3   TLS GROUP : 1                                                      
   3    SELECTION: CHAIN 'A' AND (RESID 4 THROUGH 23 )                    
   3    ORIGIN FOR THE GROUP (A):  -3.1698  -0.1618   6.9343              
   3    T TENSOR                                                          
   3      T11:   0.1868 T22:   0.2308                                     
   3      T33:   0.1790 T12:   0.0093                                     
   3      T13:   0.0266 T23:  -0.0019                                     
   3    L TENSOR                                                          
   3      L11:   3.6666 L22:   2.1140                                     
   3      L33:   5.4119 L12:  -0.1583                                     
   3      L13:  -1.3128 L23:  -0.9646                                     
   3    S TENSOR                                                          
   3      S11:   0.0267 S12:   0.1662 S13:  -0.0277                       
   3      S21:  -0.3413 S22:  -0.1511 S23:  -0.4165                       
   3      S31:   0.1410 S32:  -0.0633 S33:   0.1237                       
   3   TLS GROUP : 2                                                      
   3    SELECTION: CHAIN 'A' AND (RESID 24 THROUGH 54 )                   
   3    ORIGIN FOR THE GROUP (A):   0.3418   1.1869  17.8633              
   3    T TENSOR                                                          
   3      T11:   0.1736 T22:   0.1859                                     
   3      T33:   0.1771 T12:  -0.0041                                     
   3      T13:   0.0007 T23:   0.0075                                     
   3    L TENSOR                                                          
   3      L11:   3.3951 L22:   2.6723                                     
   3      L33:   2.6234 L12:   0.7530                                     
   3      L13:  -0.7446 L23:   0.1518                                     
   3    S TENSOR                                                          
   3      S11:   0.0713 S12:  -0.1275 S13:   0.0424                       
   3      S21:   0.1564 S22:  -0.0157 S23:  -0.1967                       
   3      S31:  -0.0666 S32:   0.2704 S33:  -0.0245                       
   3   TLS GROUP : 3                                                      
   3    SELECTION: CHAIN 'A' AND (RESID 55 THROUGH 98 )                   
   3    ORIGIN FOR THE GROUP (A): -21.2107   5.3928  36.7374              
   3    T TENSOR                                                          
   3      T11:   0.3571 T22:   0.2420                                     
   3      T33:   0.2274 T12:  -0.0083                                     
   3      T13:   0.0595 T23:  -0.0130                                     
   3    L TENSOR                                                          
   3      L11:   2.5667 L22:   0.8069                                     
   3      L33:   2.1001 L12:   0.2804                                     
   3      L13:  -1.2318 L23:  -0.3382                                     
   3    S TENSOR                                                          
   3      S11:   0.1546 S12:  -0.2284 S13:   0.1453                       
   3      S21:   0.2998 S22:  -0.0286 S23:   0.1611                       
   3      S31:  -0.2438 S32:  -0.1069 S33:  -0.1491                       
   3   TLS GROUP : 4                                                      
   3    SELECTION: CHAIN 'A' AND (RESID 99 THROUGH 162 )                  
   3    ORIGIN FOR THE GROUP (A): -27.9547  16.2333  34.0614              
   3    T TENSOR                                                          
   3      T11:   0.4405 T22:   0.2442                                     
   3      T33:   0.3329 T12:   0.0695                                     
   3      T13:   0.1536 T23:   0.0106                                     
   3    L TENSOR                                                          
   3      L11:   2.7476 L22:   2.4691                                     
   3      L33:   4.2010 L12:  -0.0661                                     
   3      L13:  -0.9084 L23:   0.3757                                     
   3    S TENSOR                                                          
   3      S11:   0.2646 S12:  -0.1272 S13:   0.5032                       
   3      S21:   0.2431 S22:   0.0577 S23:   0.0973                       
   3      S31:  -0.7288 S32:  -0.2447 S33:  -0.2537                       
   3   TLS GROUP : 5                                                      
   3    SELECTION: CHAIN 'A' AND (RESID 163 THROUGH 192 )                 
   3    ORIGIN FOR THE GROUP (A): -10.7236   1.0560  39.7047              
   3    T TENSOR                                                          
   3      T11:   0.3719 T22:   0.3658                                     
   3      T33:   0.2279 T12:  -0.0427                                     
   3      T13:  -0.0217 T23:   0.0066                                     
   3    L TENSOR                                                          
   3      L11:   3.2496 L22:   1.3613                                     
   3      L33:   2.3998 L12:   0.5376                                     
   3      L13:  -1.4979 L23:  -0.2147                                     
   3    S TENSOR                                                          
   3      S11:   0.1617 S12:  -0.5303 S13:   0.0193                       
   3      S21:   0.3448 S22:  -0.1215 S23:  -0.1091                       
   3      S31:  -0.1486 S32:   0.2576 S33:  -0.0125                       
   3   TLS GROUP : 6                                                      
   3    SELECTION: CHAIN 'A' AND (RESID 193 THROUGH 238 )                 
   3    ORIGIN FOR THE GROUP (A):  -5.8444   7.3752  28.7563              
   3    T TENSOR                                                          
   3      T11:   0.2685 T22:   0.2500                                     
   3      T33:   0.1933 T12:  -0.0504                                     
   3      T13:  -0.0066 T23:  -0.0219                                     
   3    L TENSOR                                                          
   3      L11:   3.0055 L22:   2.1508                                     
   3      L33:   2.0996 L12:   0.6727                                     
   3      L13:  -1.1709 L23:  -0.1195                                     
   3    S TENSOR                                                          
   3      S11:   0.1003 S12:  -0.3139 S13:   0.2506                       
   3      S21:   0.2246 S22:   0.0075 S23:  -0.1190                       
   3      S31:  -0.2814 S32:   0.2938 S33:  -0.1217                       
   3   TLS GROUP : 7                                                      
   3    SELECTION: CHAIN 'A' AND (RESID 239 THROUGH 256 )                 
   3    ORIGIN FOR THE GROUP (A): -19.9923 -10.8075  32.3289              
   3    T TENSOR                                                          
   3      T11:   0.3560 T22:   0.2321                                     
   3      T33:   0.2912 T12:  -0.0224                                     
   3      T13:   0.0900 T23:   0.0219                                     
   3    L TENSOR                                                          
   3      L11:   3.3797 L22:   2.5238                                     
   3      L33:   3.1203 L12:   0.2912                                     
   3      L13:  -1.3127 L23:  -0.0953                                     
   3    S TENSOR                                                          
   3      S11:  -0.2684 S12:  -0.2048 S13:  -0.4905                       
   3      S21:   0.3233 S22:  -0.0080 S23:  -0.0564                       
   3      S31:   0.4091 S32:   0.1227 S33:   0.2000                       
   3   TLS GROUP : 8                                                      
   3    SELECTION: CHAIN 'A' AND (RESID 257 THROUGH 275 )                 
   3    ORIGIN FOR THE GROUP (A): -28.5386   1.7675  21.4211              
   3    T TENSOR                                                          
   3      T11:   0.2694 T22:   0.3347                                     
   3      T33:   0.2610 T12:   0.0279                                     
   3      T13:   0.0281 T23:   0.0516                                     
   3    L TENSOR                                                          
   3      L11:   3.4132 L22:   1.5972                                     
   3      L33:   2.4074 L12:   0.3738                                     
   3      L13:  -1.2321 L23:   0.3303                                     
   3    S TENSOR                                                          
   3      S11:   0.0758 S12:   0.5282 S13:   0.1391                       
   3      S21:  -0.1429 S22:   0.1159 S23:   0.1870                       
   3      S31:  -0.2359 S32:  -0.4261 S33:  -0.0390                       
   3   TLS GROUP : 9                                                      
   3    SELECTION: CHAIN 'A' AND (RESID 276 THROUGH 332 )                 
   3    ORIGIN FOR THE GROUP (A): -22.3645   3.0831  17.5353              
   3    T TENSOR                                                          
   3      T11:   0.2024 T22:   0.2301                                     
   3      T33:   0.1747 T12:   0.0140                                     
   3      T13:   0.0090 T23:   0.0144                                     
   3    L TENSOR                                                          
   3      L11:   3.1555 L22:   2.1984                                     
   3      L33:   1.9178 L12:   0.7332                                     
   3      L13:  -1.0125 L23:  -0.7268                                     
   3    S TENSOR                                                          
   3      S11:   0.0065 S12:   0.2317 S13:   0.0766                       
   3      S21:  -0.0593 S22:   0.1027 S23:   0.1679                       
   3      S31:  -0.0685 S32:  -0.3397 S33:  -0.1173                       
   3   TLS GROUP : 10                                                     
   3    SELECTION: CHAIN 'A' AND (RESID 333 THROUGH 361 )                 
   3    ORIGIN FOR THE GROUP (A): -12.2630   1.1940  12.5507              
   3    T TENSOR                                                          
   3      T11:   0.1540 T22:   0.2001                                     
   3      T33:   0.1537 T12:   0.0066                                     
   3      T13:   0.0202 T23:   0.0058                                     
   3    L TENSOR                                                          
   3      L11:   3.5152 L22:   6.3907                                     
   3      L33:   3.9748 L12:   0.1150                                     
   3      L13:   0.1580 L23:   0.2371                                     
   3    S TENSOR                                                          
   3      S11:   0.0165 S12:   0.3069 S13:  -0.0720                       
   3      S21:  -0.2786 S22:   0.0396 S23:   0.3319                       
   3      S31:  -0.0441 S32:  -0.1943 S33:  -0.0597                       
   3                                                                      
   3  NCS DETAILS                                                         
   3   NUMBER OF NCS GROUPS : NULL                                        
   3                                                                      
   3  OTHER REFINEMENT REMARKS: NULL                                      
   4                                                                      
   4 6T3D COMPLIES WITH FORMAT V. 3.30, 13-JUL-11                         
 100                                                                      
 100 THIS ENTRY HAS BEEN PROCESSED BY PDBE ON 10-OCT-19.                  
 100 THE DEPOSITION ID IS D_1292104791.                                   
 200                                                                      
 200 EXPERIMENTAL DETAILS                                                 
 200  EXPERIMENT TYPE                : X-RAY DIFFRACTION                  
 200  DATE OF DATA COLLECTION        : 16-SEP-19                          
 200  TEMPERATURE           (KELVIN) : 100                                
 200  PH                             : 6.0                                
 200  NUMBER OF CRYSTALS USED        : 1                                  
 200                                                                      
 200  SYNCHROTRON              (Y/N) : Y                                  
 200  RADIATION SOURCE               : DIAMOND                            
 200  BEAMLINE                       : I03                                
 200  X-RAY GENERATOR MODEL          : NULL                               
 200  MONOCHROMATIC OR LAUE    (M/L) : M                                  
 200  WAVELENGTH OR RANGE        (A) : 0.9763                             
 200  MONOCHROMATOR                  : NULL                               
 200  OPTICS                         : NULL                               
 200                                                                      
 200  DETECTOR TYPE                  : PIXEL                              
 200  DETECTOR MANUFACTURER          : DECTRIS EIGER2 X 16M               
 200  INTENSITY-INTEGRATION SOFTWARE : XDS                                
 200  DATA SCALING SOFTWARE          : AIMLESS 0.7.4                      
 200                                                                      
 200  NUMBER OF UNIQUE REFLECTIONS   : 73865                              
 200  RESOLUTION RANGE HIGH      (A) : 1.500                              
 200  RESOLUTION RANGE LOW       (A) : 49.210                             
 200  REJECTION CRITERIA  (SIGMA(I)) : NULL                               
 200                                                                      
 200 OVERALL.                                                             
 200  COMPLETENESS FOR RANGE     (%) : 100.0                              
 200  DATA REDUNDANCY                : 76.60                              
 200  R MERGE                    (I) : 0.10400                            
 200  R SYM                      (I) : NULL                               
 200  <I/SIGMA(I)> FOR THE DATA SET  : 29.3000                            
 200                                                                      
 200 IN THE HIGHEST RESOLUTION SHELL.                                     
 200  HIGHEST RESOLUTION SHELL, RANGE HIGH (A) : 1.50                     
 200  HIGHEST RESOLUTION SHELL, RANGE LOW  (A) : 1.54                     
 200  COMPLETENESS FOR SHELL     (%) : 100.0                              
 200  DATA REDUNDANCY IN SHELL       : 77.10                              
 200  R MERGE FOR SHELL          (I) : 6.30000                            
 200  R SYM FOR SHELL            (I) : NULL                               
 200  <I/SIGMA(I)> FOR SHELL         : NULL                               
 200                                                                      
 200 DIFFRACTION PROTOCOL: SINGLE WAVELENGTH                              
 200 METHOD USED TO DETERMINE THE STRUCTURE: MOLECULAR REPLACEMENT        
 200 SOFTWARE USED: PHASER 2.8.3                                          
 200 STARTING MODEL: 1IEM                                                 
 200                                                                      
 200 REMARK: NULL                                                         
 280                                                                      
 280 CRYSTAL                                                              
 280 SOLVENT CONTENT, VS   (%): 56.65                                     
 280 MATTHEWS COEFFICIENT, VM (ANGSTROMS**3/DA): 2.84                     
 280                                                                      
 280 CRYSTALLIZATION CONDITIONS: 25% W/V PEG6000, 0.01 M ZNCL2, 0.1 M     
 280  MES PH = 6.0, PH 6.0, VAPOR DIFFUSION, SITTING DROP, TEMPERATURE    
 280  298K                                                                
 290                                                                      
 290 CRYSTALLOGRAPHIC SYMMETRY                                            
 290 SYMMETRY OPERATORS FOR SPACE GROUP: P 43 3 2                         
 290                                                                      
 290      SYMOP   SYMMETRY                                                
 290     NNNMMM   OPERATOR                                                
 290       1555   X,Y,Z                                                   
 290       2555   -X+1/2,-Y,Z+1/2                                         
 290       3555   -X,Y+1/2,-Z+1/2                                         
 290       4555   X+1/2,-Y+1/2,-Z                                         
 290       5555   Z,X,Y                                                   
 290       6555   Z+1/2,-X+1/2,-Y                                         
 290       7555   -Z+1/2,-X,Y+1/2                                         
 290       8555   -Z,X+1/2,-Y+1/2                                         
 290       9555   Y,Z,X                                                   
 290      10555   -Y,Z+1/2,-X+1/2                                         
 290      11555   Y+1/2,-Z+1/2,-X                                         
 290      12555   -Y+1/2,-Z,X+1/2                                         
 290      13555   Y+1/4,X+3/4,-Z+3/4                                      
 290      14555   -Y+1/4,-X+1/4,-Z+1/4                                    
 290      15555   Y+3/4,-X+3/4,Z+1/4                                      
 290      16555   -Y+3/4,X+1/4,Z+3/4                                      
 290      17555   X+1/4,Z+3/4,-Y+3/4                                      
 290      18555   -X+3/4,Z+1/4,Y+3/4                                      
 290      19555   -X+1/4,-Z+1/4,-Y+1/4                                    
 290      20555   X+3/4,-Z+3/4,Y+1/4                                      
 290      21555   Z+1/4,Y+3/4,-X+3/4                                      
 290      22555   Z+3/4,-Y+3/4,X+1/4                                      
 290      23555   -Z+3/4,Y+1/4,X+3/4                                      
 290      24555   -Z+1/4,-Y+1/4,-X+1/4                                    
 290                                                                      
 290     WHERE NNN -> OPERATOR NUMBER                                     
 290           MMM -> TRANSLATION VECTOR                                  
 290                                                                      
 290 CRYSTALLOGRAPHIC SYMMETRY TRANSFORMATIONS                            
 290 THE FOLLOWING TRANSFORMATIONS OPERATE ON THE ATOM/HETATM             
 290 RECORDS IN THIS ENTRY TO PRODUCE CRYSTALLOGRAPHICALLY                
 290 RELATED MOLECULES.                                                   
 290   SMTRY1   1  1.000000  0.000000  0.000000        0.00000            
 290   SMTRY2   1  0.000000  1.000000  0.000000        0.00000            
 290   SMTRY3   1  0.000000  0.000000  1.000000        0.00000            
 290   SMTRY1   2 -1.000000  0.000000  0.000000       69.59000            
 290   SMTRY2   2  0.000000 -1.000000  0.000000        0.00000            
 290   SMTRY3   2  0.000000  0.000000  1.000000       69.59000            
 290   SMTRY1   3 -1.000000  0.000000  0.000000        0.00000            
 290   SMTRY2   3  0.000000  1.000000  0.000000       69.59000            
 290   SMTRY3   3  0.000000  0.000000 -1.000000       69.59000            
 290   SMTRY1   4  1.000000  0.000000  0.000000       69.59000            
 290   SMTRY2   4  0.000000 -1.000000  0.000000       69.59000            
 290   SMTRY3   4  0.000000  0.000000 -1.000000        0.00000            
 290   SMTRY1   5  0.000000  0.000000  1.000000        0.00000            
 290   SMTRY2   5  1.000000  0.000000  0.000000        0.00000            
 290   SMTRY3   5  0.000000  1.000000  0.000000        0.00000            
 290   SMTRY1   6  0.000000  0.000000  1.000000       69.59000            
 290   SMTRY2   6 -1.000000  0.000000  0.000000       69.59000            
 290   SMTRY3   6  0.000000 -1.000000  0.000000        0.00000            
 290   SMTRY1   7  0.000000  0.000000 -1.000000       69.59000            
 290   SMTRY2   7 -1.000000  0.000000  0.000000        0.00000            
 290   SMTRY3   7  0.000000  1.000000  0.000000       69.59000            
 290   SMTRY1   8  0.000000  0.000000 -1.000000        0.00000            
 290   SMTRY2   8  1.000000  0.000000  0.000000       69.59000            
 290   SMTRY3   8  0.000000 -1.000000  0.000000       69.59000            
 290   SMTRY1   9  0.000000  1.000000  0.000000        0.00000            
 290   SMTRY2   9  0.000000  0.000000  1.000000        0.00000            
 290   SMTRY3   9  1.000000  0.000000  0.000000        0.00000            
 290   SMTRY1  10  0.000000 -1.000000  0.000000        0.00000            
 290   SMTRY2  10  0.000000  0.000000  1.000000       69.59000            
 290   SMTRY3  10 -1.000000  0.000000  0.000000       69.59000            
 290   SMTRY1  11  0.000000  1.000000  0.000000       69.59000            
 290   SMTRY2  11  0.000000  0.000000 -1.000000       69.59000            
 290   SMTRY3  11 -1.000000  0.000000  0.000000        0.00000            
 290   SMTRY1  12  0.000000 -1.000000  0.000000       69.59000            
 290   SMTRY2  12  0.000000  0.000000 -1.000000        0.00000            
 290   SMTRY3  12  1.000000  0.000000  0.000000       69.59000            
 290   SMTRY1  13  0.000000  1.000000  0.000000       34.79500            
 290   SMTRY2  13  1.000000  0.000000  0.000000      104.38500            
 290   SMTRY3  13  0.000000  0.000000 -1.000000      104.38500            
 290   SMTRY1  14  0.000000 -1.000000  0.000000       34.79500            
 290   SMTRY2  14 -1.000000  0.000000  0.000000       34.79500            
 290   SMTRY3  14  0.000000  0.000000 -1.000000       34.79500            
 290   SMTRY1  15  0.000000  1.000000  0.000000      104.38500            
 290   SMTRY2  15 -1.000000  0.000000  0.000000      104.38500            
 290   SMTRY3  15  0.000000  0.000000  1.000000       34.79500            
 290   SMTRY1  16  0.000000 -1.000000  0.000000      104.38500            
 290   SMTRY2  16  1.000000  0.000000  0.000000       34.79500            
 290   SMTRY3  16  0.000000  0.000000  1.000000      104.38500            
 290   SMTRY1  17  1.000000  0.000000  0.000000       34.79500            
 290   SMTRY2  17  0.000000  0.000000  1.000000      104.38500            
 290   SMTRY3  17  0.000000 -1.000000  0.000000      104.38500            
 290   SMTRY1  18 -1.000000  0.000000  0.000000      104.38500            
 290   SMTRY2  18  0.000000  0.000000  1.000000       34.79500            
 290   SMTRY3  18  0.000000  1.000000  0.000000      104.38500            
 290   SMTRY1  19 -1.000000  0.000000  0.000000       34.79500            
 290   SMTRY2  19  0.000000  0.000000 -1.000000       34.79500            
 290   SMTRY3  19  0.000000 -1.000000  0.000000       34.79500            
 290   SMTRY1  20  1.000000  0.000000  0.000000      104.38500            
 290   SMTRY2  20  0.000000  0.000000 -1.000000      104.38500            
 290   SMTRY3  20  0.000000  1.000000  0.000000       34.79500            
 290   SMTRY1  21  0.000000  0.000000  1.000000       34.79500            
 290   SMTRY2  21  0.000000  1.000000  0.000000      104.38500            
 290   SMTRY3  21 -1.000000  0.000000  0.000000      104.38500            
 290   SMTRY1  22  0.000000  0.000000  1.000000      104.38500            
 290   SMTRY2  22  0.000000 -1.000000  0.000000      104.38500            
 290   SMTRY3  22  1.000000  0.000000  0.000000       34.79500            
 290   SMTRY1  23  0.000000  0.000000 -1.000000      104.38500            
 290   SMTRY2  23  0.000000  1.000000  0.000000       34.79500            
 290   SMTRY3  23  1.000000  0.000000  0.000000      104.38500            
 290   SMTRY1  24  0.000000  0.000000 -1.000000       34.79500            
 290   SMTRY2  24  0.000000 -1.000000  0.000000       34.79500            
 290   SMTRY3  24 -1.000000  0.000000  0.000000       34.79500            
 290                                                                      
 290 REMARK: NULL                                                         
 300                                                                      
 300 BIOMOLECULE: 1                                                       
 300 SEE REMARK 350 FOR THE AUTHOR PROVIDED AND/OR PROGRAM                
 300 GENERATED ASSEMBLY INFORMATION FOR THE STRUCTURE IN                  
 300 THIS ENTRY. THE REMARK MAY ALSO PROVIDE INFORMATION ON               
 300 BURIED SURFACE AREA.                                                 
 350                                                                      
 350 COORDINATES FOR A COMPLETE MULTIMER REPRESENTING THE KNOWN           
 350 BIOLOGICALLY SIGNIFICANT OLIGOMERIZATION STATE OF THE                
 350 MOLECULE CAN BE GENERATED BY APPLYING BIOMT TRANSFORMATIONS          
 350 GIVEN BELOW.  BOTH NON-CRYSTALLOGRAPHIC AND                          
 350 CRYSTALLOGRAPHIC OPERATIONS ARE GIVEN.                               
 350                                                                      
 350 BIOMOLECULE: 1                                                       
 350 AUTHOR DETERMINED BIOLOGICAL UNIT: MONOMERIC                         
 350 SOFTWARE DETERMINED QUATERNARY STRUCTURE: MONOMERIC                  
 350 SOFTWARE USED: PISA                                                  
 350 TOTAL BURIED SURFACE AREA: 670 ANGSTROM**2                           
 350 SURFACE AREA OF THE COMPLEX: 13820 ANGSTROM**2                       
 350 CHANGE IN SOLVENT FREE ENERGY: -73.0 KCAL/MOL                        
 350 APPLY THE FOLLOWING TO CHAINS: A                                     
 350   BIOMT1   1  1.000000  0.000000  0.000000        0.00000            
 350   BIOMT2   1  0.000000  1.000000  0.000000        0.00000            
 350   BIOMT3   1  0.000000  0.000000  1.000000        0.00000            
 375                                                                      
 375 SPECIAL POSITION                                                     
 375 THE FOLLOWING ATOMS ARE FOUND TO BE WITHIN 0.15 ANGSTROMS            
 375 OF A SYMMETRY RELATED ATOM AND ARE ASSUMED TO BE ON SPECIAL          
 375 POSITIONS.                                                           
 375                                                                      
 375 ATOM RES CSSEQI                                                      
 375 ZN    ZN A 402  LIES ON A SPECIAL POSITION.                          
 375 CL    CL A 405  LIES ON A SPECIAL POSITION.                          
 375      HOH A 787  LIES ON A SPECIAL POSITION.                          
 375      HOH A 829  LIES ON A SPECIAL POSITION.                          
 470                                                                      
 470 MISSING ATOM                                                         
 470 THE FOLLOWING RESIDUES HAVE MISSING ATOMS (M=MODEL NUMBER;           
 470 RES=RESIDUE NAME; C=CHAIN IDENTIFIER; SSEQ=SEQUENCE NUMBER;          
 470 I=INSERTION CODE):                                                   
 470   M RES CSSEQI  ATOMS                                                
 470     GLN A   6    CD   OE1  NE2                                       
 470     GLN A   7    CD   OE1  NE2                                       
 470     ARG A  14    CZ   NH1  NH2                                       
 470     TYR A  45    OH                                                  
 470     LYS A  51    CD   CE   NZ                                        
 470     GLN A  52    OE1  NE2                                            
 470     GLN A  57    CD   OE1  NE2                                       
 470     LYS A  84    NZ                                                  
 470     LYS A  99    CG   CD   CE   NZ                                   
 470     ASN A 102    OD1  ND2                                            
 470     GLN A 120    OE1  NE2                                            
 470     ASP A 123    OD1  OD2                                            
 470     GLU A 124    CG   CD   OE1  OE2                                  
 470     LYS A 126    CG   CD   CE   NZ                                   
 470     SER A 128    OG                                                  
 470     SER A 129    OG                                                  
 470     ARG A 133    CD   NE   CZ   NH1  NH2                             
 470     GLN A 139    CD   OE1  NE2                                       
 470     LYS A 164    CE   NZ                                             
 470     GLN A 172    CD   OE1  NE2                                       
 470     LYS A 183    CE   NZ                                             
 470     GLU A 196    OE1  OE2                                            
 470     LYS A 197    CE   NZ                                             
 470     ARG A 204    NE   CZ   NH1  NH2                                  
 470     GLU A 205    CD   OE1  OE2                                       
 470     LYS A 207    CD   CE   NZ                                        
 470     ASN A 244    OD1  ND2                                            
 470     LYS A 246    NZ                                                  
 470     LYS A 290    CG   CD   CE   NZ                                   
 470     ARG A 296    CZ   NH1  NH2                                       
 470     LYS A 299    CD   CE   NZ                                        
 470     THR A 302    OG1  CG2                                            
 470     ARG A 309    CZ   NH1  NH2                                       
 470     GLU A 331    CD   OE1  OE2                                       
 470     LYS A 332    NZ                                                  
 500                                                                      
 500 GEOMETRY AND STEREOCHEMISTRY                                         
 500 SUBTOPIC: TORSION ANGLES                                             
 500                                                                      
 500 TORSION ANGLES OUTSIDE THE EXPECTED RAMACHANDRAN REGIONS:            
 500 (M=MODEL NUMBER; RES=RESIDUE NAME; C=CHAIN IDENTIFIER;               
 500 SSEQ=SEQUENCE NUMBER; I=INSERTION CODE).                             
 500                                                                      
 500 STANDARD TABLE:                                                      
 500 FORMAT:(10X,I3,1X,A3,1X,A1,I4,A1,4X,F7.2,3X,F7.2)                    
 500                                                                      
 500 EXPECTED VALUES: GJ KLEYWEGT AND TA JONES (1996). PHI/PSI-           
 500 CHOLOGY: RAMACHANDRAN REVISITED. STRUCTURE 4, 1395 - 1400            
 500                                                                      
 500  M RES CSSEQI        PSI       PHI                                   
 500    VAL A 178      -58.97   -124.96                                   
 500    TYR A 221       19.10   -159.57                                   
 500    ALA A 307      123.20    -39.49                                   
 500    ASN A 341       41.93    -99.55                                   
 500                                                                      
 500 REMARK: NULL                                                         
 620                                                                      
 620 METAL COORDINATION                                                   
 620 (M=MODEL NUMBER; RES=RESIDUE NAME; C=CHAIN IDENTIFIER;               
 620 SSEQ=SEQUENCE NUMBER; I=INSERTION CODE):                             
 620                                                                      
 620 COORDINATION ANGLES FOR:  M RES CSSEQI METAL                         
 620                              ZN A 402  ZN                            
 620 N RES CSSEQI ATOM                                                    
 620 1 HIS A  13   NE2                                                    
 620 2 HIS A  13   NE2   0.0                                              
 620 N                    1                                               
 620                                                                      
 620 COORDINATION ANGLES FOR:  M RES CSSEQI METAL                         
 620                              ZN A 403  ZN                            
 620 N RES CSSEQI ATOM                                                    
 620 1 HIS A 186   NE2                                                    
 620 2 HOH A 510   O   100.4                                              
 620 3 HOH A 562   O    91.8  86.3                                        
 620 4 HOH A 691   O    89.0 167.6  85.3                                  
 620 5 HOH A 749   O    97.7  92.6 170.4  94.1                            
 620 N                    1     2     3     4                             
 800                                                                      
 800 SITE                                                                 
 800 SITE_IDENTIFIER: AC1                                                 
 800 EVIDENCE_CODE: SOFTWARE                                              
 800 SITE_DESCRIPTION: binding site for residue EDO A 401                 
 800                                                                      
 800 SITE_IDENTIFIER: AC2                                                 
 800 EVIDENCE_CODE: SOFTWARE                                              
 800 SITE_DESCRIPTION: binding site for residue ZN A 402                  
 800                                                                      
 800 SITE_IDENTIFIER: AC3                                                 
 800 EVIDENCE_CODE: SOFTWARE                                              
 800 SITE_DESCRIPTION: binding site for residue ZN A 403                  
 800                                                                      
 800 SITE_IDENTIFIER: AC4                                                 
 800 EVIDENCE_CODE: SOFTWARE                                              
 800 SITE_DESCRIPTION: binding site for residue SO4 A 404                 
 800                                                                      
 800 SITE_IDENTIFIER: AC5                                                 
 800 EVIDENCE_CODE: SOFTWARE                                              
 800 SITE_DESCRIPTION: binding site for residue CL A 405                  

>  <DBREF>
 6T3D A    4   361  UNP    P00811   AMPC_ECOLI      20    377             

>  <SEQRES>
   1 A  358  ALA PRO GLN GLN ILE ASN ASP ILE VAL HIS ARG THR ILE          
   2 A  358  THR PRO LEU ILE GLU GLN GLN LYS ILE PRO GLY MET ALA          
   3 A  358  VAL ALA VAL ILE TYR GLN GLY LYS PRO TYR TYR PHE THR          
   4 A  358  TRP GLY TYR ALA ASP ILE ALA LYS LYS GLN PRO VAL THR          
   5 A  358  GLN GLN THR LEU PHE GLU LEU GLY SER VAL SER LYS THR          
   6 A  358  PHE THR GLY VAL LEU GLY GLY ASP ALA ILE ALA ARG GLY          
   7 A  358  GLU ILE LYS LEU SER ASP PRO THR THR LYS TYR TRP PRO          
   8 A  358  GLU LEU THR ALA LYS GLN TRP ASN GLY ILE THR LEU LEU          
   9 A  358  HIS LEU ALA THR TYR THR ALA GLY GLY LEU PRO LEU GLN          
  10 A  358  VAL PRO ASP GLU VAL LYS SER SER SER ASP LEU LEU ARG          
  11 A  358  PHE TYR GLN ASN TRP GLN PRO ALA TRP ALA PRO GLY THR          
  12 A  358  GLN ARG LEU TYR ALA ASN SER SER ILE GLY LEU PHE GLY          
  13 A  358  ALA LEU ALA VAL LYS PRO SER GLY LEU SER PHE GLU GLN          
  14 A  358  ALA MET GLN THR ARG VAL PHE GLN PRO LEU LYS LEU ASN          
  15 A  358  HIS THR TRP ILE ASN VAL PRO PRO ALA GLU GLU LYS ASN          
  16 A  358  TYR ALA TRP GLY TYR ARG GLU GLY LYS ALA VAL HIS VAL          
  17 A  358  SER PRO GLY ALA LEU ASP ALA GLU ALA TYR GLY VAL LYS          
  18 A  358  SER THR ILE GLU ASP MET ALA ARG TRP VAL GLN SER ASN          
  19 A  358  LEU LYS PRO LEU ASP ILE ASN GLU LYS THR LEU GLN GLN          
  20 A  358  GLY ILE GLN LEU ALA GLN SER ARG TYR TRP GLN THR GLY          
  21 A  358  ASP MET TYR GLN GLY LEU GLY TRP GLU MET LEU ASP TRP          
  22 A  358  PRO VAL ASN PRO ASP SER ILE ILE ASN GLY SER ASP ASN          
  23 A  358  LYS ILE ALA LEU ALA ALA ARG PRO VAL LYS ALA ILE THR          
  24 A  358  PRO PRO THR PRO ALA VAL ARG ALA SER TRP VAL HIS LYS          
  25 A  358  THR GLY ALA THR GLY GLY PHE GLY SER TYR VAL ALA PHE          
  26 A  358  ILE PRO GLU LYS GLU LEU GLY ILE VAL MET LEU ALA ASN          
  27 A  358  LYS ASN TYR PRO ASN PRO ALA ARG VAL ASP ALA ALA TRP          
  28 A  358  GLN ILE LEU ASN ALA LEU GLN                                  

>  <HET>
 EDO  A 401      10                                                       
  ZN  A 402       1                                                       
  ZN  A 403       1                                                       
 SO4  A 404       5                                                       
  CL  A 405       1                                                       

>  <HETNAM>
     EDO 1,2-ETHANEDIOL                                                   
      ZN ZINC ION                                                         
     SO4 SULFATE ION                                                      
      CL CHLORIDE ION                                                     

>  <HETSYN>
     EDO ETHYLENE GLYCOL                                                  

>  <FORMUL>
   2  EDO    C2 H6 O2                                                     
   3   ZN    2(ZN 2+)                                                     
   5  SO4    O4 S 2-                                                      
   6   CL    CL 1-                                                        
   7  HOH   *335(H2 O)                                                    

>  <HELIX>
   1   1 PRO A    5  LYS A   24  1                                  20    
   2   2 VAL A   65  ARG A   80  1                                  16    
   3   3 PRO A   88  TYR A   92  1                                   5    
   4   4 ALA A   98  ASN A  102  1                                   5    
   5   5 THR A  105  THR A  111  1                                   7    
   6   6 SER A  127  TRP A  138  1                                  12    
   7   7 ALA A  151  VAL A  163  1                                  13    
   8   8 LYS A  164  GLY A  167  1                                   4    
   9   9 SER A  169  VAL A  178  1                                  10    
  10  10 PRO A  192  TYR A  199  1                                   8    
  11  11 LEU A  216  TYR A  221  1                                   6    
  12  12 THR A  226  LYS A  239  1                                  14    
  13  13 PRO A  240  ILE A  243  1                                   4    
  14  14 GLU A  245  GLN A  256  1                                  12    
  15  15 ASN A  279  SER A  287  1                                   9    
  16  16 ASP A  288  LEU A  293  1                                   6    
  17  17 PRO A  330  GLU A  333  1                                   4    
  18  18 PRO A  345  GLN A  361  1                                  17    

>  <SHEET>
   1   1 1 GLY A  27  TYR A  34  0                                        
   2   2 1 LYS A  37  ASP A  47  0                                        
   3   3 1 GLN A  52  PRO A  53  0                                        
   4   4 1 PHE A  60  GLU A  61  0                                        
   5   5 1 GLN A 147  ARG A 148  0                                        
   6   6 1 THR A 187  TRP A 188  0                                        
   7   7 1 GLY A 202  ARG A 204  0                                        
   8   8 1 LYS A 207  VAL A 209  0                                        
   9   9 1 LYS A 224  SER A 225  0                                        
  10  10 1 ARG A 258  THR A 262  0                                        
  11  11 1 MET A 265  GLN A 267  0                                        
  12  12 1 GLU A 272  ASP A 275  0                                        
  13  13 1 ARG A 296  PRO A 297  0                                        
  14  14 1 LYS A 299  THR A 305  0                                        
  15  15 1 SER A 311  THR A 319  0                                        
  16  16 1 PHE A 322  ILE A 329  0                                        
  17  17 1 LEU A 334  ALA A 340  0                                        

>  <LINK>
       NE2 HIS A  13                ZN    ZN A 402     1555   5555  2.03  

>  <CISPEP>
   1 TRP A  276    PRO A  277          0         5.02                     
   2 THR A  302    PRO A  303          0        -1.89                     

>  <SITE>
 *** AC1  1 TRP A  93                                                     
 *** AC2  2 HIS A  13   CL A 405                                          
 *** AC3  5 HIS A 186  HOH A 510  HOH A 562  HOH A 691                    
 *** AC3  5 HOH A 749                                                     
 *** AC4  5 VAL A 211  SER A 212  THR A 319  GLY A 320                    
 *** AC4  5 HOH A 506                                                     
 *** AC5  3 HIS A  13   ZN A 402  HOH A 829                               

>  <ORIGX1>
      1.000000  0.000000  0.000000        0.00000                         

>  <ORIGX2>
      0.000000  1.000000  0.000000        0.00000                         

>  <ORIGX3>
      0.000000  0.000000  1.000000        0.00000                         

>  <SCALE1>
      0.007185  0.000000  0.000000        0.00000                         

>  <SCALE2>
      0.000000  0.007185  0.000000        0.00000                         

>  <SCALE3>
      0.000000  0.000000  0.007185        0.00000                         

>  <ANISOU>
    1  N   SER A  64     3987   2772   3177      2    344     96       N  
    2  CA  SER A  64     3950   2815   3171     63    355    110       C  
    3  C   SER A  64     3582   2629   2834     42    266     87       C  
    4  O   SER A  64     3615   2723   2887     66    274     84       O  
    5  CB  SER A  64     4697   3638   4006    175    414    213       C  
    6  OG  SER A  64     5320   4044   4608    216    532    236       O  

$$$$
