0N3
  -OEChem-07282321083D

 30 30  0     0  0  0  0  0  0999 V2000
    4.9280   -0.2280   -0.5900 B   0  0  0  0  0  0  0  0  0  0  0  0
    5.9690   -0.2410    0.3760 O   0  0  0  0  0  0  0  0  0  0  0  0
    5.1160   -0.8650   -1.8450 O   0  0  0  0  0  0  0  0  0  0  0  0
    3.5660    0.4850   -0.2680 C   0  0  0  0  0  0  0  0  0  0  0  0
    2.6900   -0.4400    0.4560 N   0  0  0  0  0  0  0  0  0  0  0  0
    1.1380    0.0050    0.8200 S   0  0  0  0  0  0  0  0  0  0  0  0
    0.6120   -1.1080    1.5300 O   0  0  0  0  0  0  0  0  0  0  0  0
    1.2740    1.2740    1.4450 O   0  0  0  0  0  0  0  0  0  0  0  0
    0.3240    0.1730   -0.7930 C   0  0  0  0  0  0  0  0  0  0  0  0
   -1.1130    0.5800   -0.5900 C   0  0  0  0  0  0  0  0  0  0  0  0
   -1.4500    1.9210   -0.5390 C   0  0  0  0  0  0  0  0  0  0  0  0
   -2.7670    2.3030   -0.3540 C   0  0  0  0  0  0  0  0  0  0  0  0
   -3.7530    1.3490   -0.2190 C   0  0  0  0  0  0  0  0  0  0  0  0
   -3.4200   -0.0070   -0.2700 C   0  0  0  0  0  0  0  0  0  0  0  0
   -4.4700   -1.0350   -0.1260 C   0  0  0  0  0  0  0  0  0  0  0  0
   -5.7530   -0.6660    0.0550 O   0  0  0  0  0  0  0  0  0  0  0  0
   -4.1780   -2.2130   -0.1700 O   0  0  0  0  0  0  0  0  0  0  0  0
   -2.0900   -0.3850   -0.4630 C   0  0  0  0  0  0  0  0  0  0  0  0
    5.7780    0.2820    1.1660 H   0  0  0  0  0  0  0  0  0  0  0  0
    5.9830   -1.2800   -1.9500 H   0  0  0  0  0  0  0  0  0  0  0  0
    3.7540    1.3650    0.3470 H   0  0  0  0  0  0  0  0  0  0  0  0
    3.0860    0.7880   -1.1980 H   0  0  0  0  0  0  0  0  0  0  0  0
    3.0200   -1.3130    0.7210 H   0  0  0  0  0  0  0  0  0  0  0  0
    0.8380    0.9340   -1.3810 H   0  0  0  0  0  0  0  0  0  0  0  0
    0.3610   -0.7800   -1.3190 H   0  0  0  0  0  0  0  0  0  0  0  0
   -0.6810    2.6730   -0.6440 H   0  0  0  0  0  0  0  0  0  0  0  0
   -3.0230    3.3520   -0.3160 H   0  0  0  0  0  0  0  0  0  0  0  0
   -4.7800    1.6480   -0.0740 H   0  0  0  0  0  0  0  0  0  0  0  0
   -6.4060   -1.3750    0.1440 H   0  0  0  0  0  0  0  0  0  0  0  0
   -1.8250   -1.4320   -0.5030 H   0  0  0  0  0  0  0  0  0  0  0  0
 15 17  2  0  0  0  0
 12 13  2  0  0  0  0
 13 14  1  0  0  0  0
 11 12  1  0  0  0  0
 14 15  1  0  0  0  0
 15 16  1  0  0  0  0
 14 18  2  0  0  0  0
 10 11  2  0  0  0  0
 10 18  1  0  0  0  0
  9 10  1  0  0  0  0
  6  9  1  0  0  0  0
  6  7  2  0  0  0  0
  6  8  2  0  0  0  0
  5  6  1  0  0  0  0
  4  5  1  0  0  0  0
  1  4  1  0  0  0  0
  1  2  1  0  0  0  0
  1  3  1  0  0  0  0
  2 19  1  0  0  0  0
  3 20  1  0  0  0  0
  4 21  1  0  0  0  0
  4 22  1  0  0  0  0
  5 23  1  0  0  0  0
  9 24  1  0  0  0  0
  9 25  1  0  0  0  0
 11 26  1  0  0  0  0
 12 27  1  0  0  0  0
 13 28  1  0  0  0  0
 16 29  1  0  0  0  0
 18 30  1  0  0  0  0
M  END
> <OPENEYE_ISO_SMILES>
B(CNS(=O)(=O)Cc1cccc(c1)C(=O)O)(O)O

> <OPENEYE_INCHI>
InChI=1S/C9H12BNO6S/c12-9(13)8-3-1-2-7(4-8)5-18(16,17)11-6-10(14)15/h1-4,11,14-15H,5-6H2,(H,12,13)

> <OPENEYE_INCHIKEY>
AHCSCYIPIIBZTG-UHFFFAOYSA-N

> <FORMULA>
C9H12BNO6S

$$$$
