0N4
  -OEChem-07282321083D

 29 30  0     0  0  0  0  0  0999 V2000
    3.8630    2.0420   -0.0220 B   0  0  0  0  0  0  0  0  0  0  0  0
    5.2760    2.0300    0.1220 O   0  0  0  0  0  0  0  0  0  0  0  0
    3.2310    3.0930   -0.7380 O   0  0  0  0  0  0  0  0  0  0  0  0
    3.0000    0.8900    0.6050 C   0  0  0  0  0  0  0  0  0  0  0  0
    2.9470   -0.2410   -0.3240 N   0  0  0  0  0  0  0  0  0  0  0  0
    2.0060   -1.5580    0.0270 S   0  0  0  0  0  0  0  0  0  0  0  0
    2.1410   -2.4510   -1.0700 O   0  0  0  0  0  0  0  0  0  0  0  0
    2.3080   -1.9210    1.3670 O   0  0  0  0  0  0  0  0  0  0  0  0
    0.3290   -1.0160    0.0240 C   0  0  0  0  0  0  0  0  0  0  0  0
   -0.2440   -0.5450    1.1910 C   0  0  0  0  0  0  0  0  0  0  0  0
   -1.5550   -0.1140    1.1950 C   0  0  0  0  0  0  0  0  0  0  0  0
   -2.3020   -0.1550    0.0180 C   0  0  0  0  0  0  0  0  0  0  0  0
   -3.7090    0.3060    0.0140 C   0  0  0  0  0  0  0  0  0  0  0  0
   -4.5500    0.3180   -1.0490 N   0  0  0  0  0  0  0  0  0  0  0  0
   -5.7620    0.8310   -0.5540 N   0  0  0  0  0  0  0  0  0  0  0  0
   -5.5800    1.0790    0.6970 N   0  0  0  0  0  0  0  0  0  0  0  0
   -4.3810    0.7760    1.0430 N   0  0  0  0  0  0  0  0  0  0  0  0
   -1.7180   -0.6310   -1.1560 C   0  0  0  0  0  0  0  0  0  0  0  0
   -0.4070   -1.0590   -1.1460 C   0  0  0  0  0  0  0  0  0  0  0  0
    5.7210    2.7770   -0.3010 H   0  0  0  0  0  0  0  0  0  0  0  0
    2.2780    2.9750   -0.8500 H   0  0  0  0  0  0  0  0  0  0  0  0
    3.4510    0.5680    1.5440 H   0  0  0  0  0  0  0  0  0  0  0  0
    0.3360   -0.5130    2.1020 H   0  0  0  0  0  0  0  0  0  0  0  0
   -2.0020    0.2530    2.1070 H   0  0  0  0  0  0  0  0  0  0  0  0
   -4.3580    0.0330   -1.9560 H   0  0  0  0  0  0  0  0  0  0  0  0
   -2.2920   -0.6660   -2.0710 H   0  0  0  0  0  0  0  0  0  0  0  0
    0.0480   -1.4240   -2.0560 H   0  0  0  0  0  0  0  0  0  0  0  0
    1.9900    1.2540    0.7930 H   0  0  0  0  0  0  0  0  0  0  0  0
    3.4630   -0.2190   -1.1460 H   0  0  0  0  0  0  0  0  0  0  0  0
  1  3  1  0  0  0  0
  1  2  1  0  0  0  0
  2 20  1  0  0  0  0
  3 21  1  0  0  0  0
  4  5  1  0  0  0  0
  1  4  1  0  0  0  0
  4 22  1  0  0  0  0
  6  7  2  0  0  0  0
  5  6  1  0  0  0  0
  6  8  2  0  0  0  0
  9 19  1  0  0  0  0
  6  9  1  0  0  0  0
  9 10  2  0  0  0  0
 10 23  1  0  0  0  0
 11 12  2  0  0  0  0
 10 11  1  0  0  0  0
 11 24  1  0  0  0  0
 12 18  1  0  0  0  0
 13 17  2  0  0  0  0
 12 13  1  0  0  0  0
 13 14  1  0  0  0  0
 14 25  1  0  0  0  0
 14 15  1  0  0  0  0
 15 16  2  0  0  0  0
 16 17  1  0  0  0  0
 18 19  2  0  0  0  0
 18 26  1  0  0  0  0
 19 27  1  0  0  0  0
  4 28  1  0  0  0  0
  5 29  1  0  0  0  0
M  END
> <OPENEYE_ISO_SMILES>
B(CNS(=O)(=O)c1ccc(cc1)c2[nH]nnn2)(O)O

> <OPENEYE_INCHI>
InChI=1S/C8H10BN5O4S/c15-9(16)5-10-19(17,18)7-3-1-6(2-4-7)8-11-13-14-12-8/h1-4,10,15-16H,5H2,(H,11,12,13,14)

> <OPENEYE_INCHIKEY>
SHNAIZGISNDQJQ-UHFFFAOYSA-N

> <FORMULA>
C8H10BN5O4S

$$$$
