REMARK  7 active torsions:
REMARK  status: ('A' for Active; 'I' for Inactive)
REMARK    1  A    between atoms: B_1  and  O_3 
REMARK    2  A    between atoms: B_1  and  O_2 
REMARK    3  A    between atoms: B_1  and  C_4 
REMARK    4  A    between atoms: C_4  and  N_5 
REMARK    5  A    between atoms: N_5  and  S_6 
REMARK    6  A    between atoms: S_6  and  C_9 
REMARK    7  A    between atoms: C_12  and  C_13 
ROOT
HETATM    1  C   UNL     1       0.329  -1.016   0.024  1.00  0.00     0.079 A 
HETATM    2  C   UNL     1      -0.244  -0.545   1.191  1.00  0.00     0.026 A 
HETATM    3  C   UNL     1      -1.555  -0.114   1.195  1.00  0.00     0.017 A 
HETATM    4  C   UNL     1      -2.302  -0.155   0.018  1.00  0.00     0.013 A 
HETATM    5  C   UNL     1      -1.718  -0.631  -1.156  1.00  0.00     0.017 A 
HETATM    6  C   UNL     1      -0.407  -1.059  -1.146  1.00  0.00     0.026 A 
ENDROOT
BRANCH   1   7
HETATM    7  S   UNL     1       2.006  -1.558   0.027  1.00  0.00     0.258 S 
HETATM    8  O   UNL     1       2.141  -2.451  -1.070  1.00  0.00    -0.201 OA
HETATM    9  O   UNL     1       2.308  -1.921   1.367  1.00  0.00    -0.201 OA
BRANCH   7  10
HETATM   10  N   UNL     1       2.947  -0.241  -0.324  1.00  0.00    -0.319 N 
HETATM   11  H   UNL     1       3.463  -0.219  -1.146  1.00  0.00     0.171 HD
BRANCH  10  12
HETATM   12  C   UNL     1       3.000   0.890   0.605  1.00  0.00     0.152 C 
BRANCH  12  13
HETATM   13  B   UNL     1       3.863   2.042  -0.022  1.00  0.00     0.510 B 
BRANCH  13  14
HETATM   14  O   UNL     1       3.231   3.093  -0.738  1.00  0.00    -0.436 OA
HETATM   15  H   UNL     1       2.278   2.975  -0.850  1.00  0.00     0.184 HD
ENDBRANCH  13  14
BRANCH  13  16
HETATM   16  O   UNL     1       5.276   2.030   0.122  1.00  0.00    -0.436 OA
HETATM   17  H   UNL     1       5.721   2.777  -0.301  1.00  0.00     0.184 HD
ENDBRANCH  13  16
ENDBRANCH  12  13
ENDBRANCH  10  12
ENDBRANCH   7  10
ENDBRANCH   1   7
BRANCH   4  18
HETATM   18  C   UNL     1      -3.709   0.306   0.014  1.00  0.00     0.179 A 
HETATM   19  N   UNL     1      -4.381   0.776   1.043  1.00  0.00    -0.108 NA
HETATM   20  N   UNL     1      -5.580   1.079   0.697  1.00  0.00    -0.023 NA
HETATM   21  N   UNL     1      -5.762   0.831  -0.554  1.00  0.00    -0.046 NA
HETATM   22  N   UNL     1      -4.550   0.318  -1.049  1.00  0.00    -0.239 N 
HETATM   23  H   UNL     1      -4.358   0.033  -1.956  1.00  0.00     0.192 HD
ENDBRANCH   4  18
TORSDOF 7
