0NA
  -OEChem-07282321083D

 28 29  0     0  0  0  0  0  0999 V2000
    3.9470   -1.9820    0.1160 B   0  0  0  0  0  0  0  0  0  0  0  0
    5.0200   -1.5520    0.9410 O   0  0  0  0  0  0  0  0  0  0  0  0
    3.7380   -3.3690   -0.1110 O   0  0  0  0  0  0  0  0  0  0  0  0
    2.9880   -0.9270   -0.5400 C   0  0  0  0  0  0  0  0  0  0  0  0
    2.9040    0.2570    0.3200 N   0  0  0  0  0  0  0  0  0  0  0  0
    1.9560    1.5390   -0.1280 S   0  0  0  0  0  0  0  0  0  0  0  0
    2.0600    2.4980    0.9160 O   0  0  0  0  0  0  0  0  0  0  0  0
    2.2820    1.8260   -1.4810 O   0  0  0  0  0  0  0  0  0  0  0  0
    0.2860    0.9790   -0.1250 C   0  0  0  0  0  0  0  0  0  0  0  0
   -0.2700    0.4300   -1.2710 C   0  0  0  0  0  0  0  0  0  0  0  0
   -1.5840   -0.0040   -1.2260 C   0  0  0  0  0  0  0  0  0  0  0  0
   -2.3000    0.1270   -0.0370 C   0  0  0  0  0  0  0  0  0  0  0  0
   -3.7060   -0.3320    0.0280 C   0  0  0  0  0  0  0  0  0  0  0  0
   -4.5310   -0.2700    1.1000 N   0  0  0  0  0  0  0  0  0  0  0  0
   -5.6640   -0.7670    0.7340 N   0  0  0  0  0  0  0  0  0  0  0  0
   -5.5850   -1.1310   -0.4970 N   0  0  0  0  0  0  0  0  0  0  0  0
   -4.4050   -0.8770   -0.9490 N   0  0  0  0  0  0  0  0  0  0  0  0
   -1.7300    0.6590    1.0380 N   0  0  0  0  0  0  0  0  0  0  0  0
   -0.4820    1.0790    1.0210 C   0  0  0  0  0  0  0  0  0  0  0  0
    5.0820   -0.5910    1.0360 H   0  0  0  0  0  0  0  0  0  0  0  0
    4.3760   -3.9410    0.3380 H   0  0  0  0  0  0  0  0  0  0  0  0
    3.3770   -0.6390   -1.5160 H   0  0  0  0  0  0  0  0  0  0  0  0
    0.3100    0.3420   -2.1780 H   0  0  0  0  0  0  0  0  0  0  0  0
   -2.0490   -0.4360   -2.1000 H   0  0  0  0  0  0  0  0  0  0  0  0
   -4.3110    0.0830    1.9770 H   0  0  0  0  0  0  0  0  0  0  0  0
   -0.0510    1.5020    1.9160 H   0  0  0  0  0  0  0  0  0  0  0  0
    1.9950   -1.3610   -0.6580 H   0  0  0  0  0  0  0  0  0  0  0  0
    3.4030    0.2890    1.1510 H   0  0  0  0  0  0  0  0  0  0  0  0
 14 15  1  0  0  0  0
 15 16  2  0  0  0  0
 13 14  1  0  0  0  0
 16 17  1  0  0  0  0
 13 17  2  0  0  0  0
 12 13  1  0  0  0  0
 11 12  2  0  0  0  0
 10 11  1  0  0  0  0
 12 18  1  0  0  0  0
  9 10  2  0  0  0  0
 18 19  2  0  0  0  0
  9 19  1  0  0  0  0
  6  9  1  0  0  0  0
  6  8  2  0  0  0  0
  6  7  2  0  0  0  0
  5  6  1  0  0  0  0
  4  5  1  0  0  0  0
  1  4  1  0  0  0  0
  1  3  1  0  0  0  0
  1  2  1  0  0  0  0
  2 20  1  0  0  0  0
  3 21  1  0  0  0  0
  4 22  1  0  0  0  0
 10 23  1  0  0  0  0
 11 24  1  0  0  0  0
 14 25  1  0  0  0  0
 19 26  1  0  0  0  0
  4 27  1  0  0  0  0
  5 28  1  0  0  0  0
M  END
> <OPENEYE_ISO_SMILES>
B(CNS(=O)(=O)c1ccc(nc1)c2[nH]nnn2)(O)O

> <OPENEYE_INCHI>
InChI=1S/C7H9BN6O4S/c15-8(16)4-10-19(17,18)5-1-2-6(9-3-5)7-11-13-14-12-7/h1-3,10,15-16H,4H2,(H,11,12,13,14)

> <OPENEYE_INCHIKEY>
HHNYNQPNDNBATH-UHFFFAOYSA-N

> <FORMULA>
C7H9BN6O4S

$$$$
