REMARK  7 active torsions:
REMARK  status: ('A' for Active; 'I' for Inactive)
REMARK    1  A    between atoms: B_1  and  C_4 
REMARK    2  A    between atoms: B_1  and  O_3 
REMARK    3  A    between atoms: B_1  and  O_2 
REMARK    4  A    between atoms: C_4  and  N_5 
REMARK    5  A    between atoms: N_5  and  S_6 
REMARK    6  A    between atoms: S_6  and  C_9 
REMARK    7  A    between atoms: C_12  and  C_13 
ROOT
HETATM    1  C   UNL     1       0.618  -0.883   0.455  1.00  0.00     0.081 A 
HETATM    2  C   UNL     1       0.139  -0.162   1.534  1.00  0.00     0.026 A 
HETATM    3  C   UNL     1      -1.160   0.305   1.534  1.00  0.00     0.018 A 
HETATM    4  C   UNL     1      -1.990   0.049   0.443  1.00  0.00     0.035 A 
HETATM    5  C   UNL     1      -1.500  -0.679  -0.644  1.00  0.00     0.049 A 
HETATM    6 CL   UNL     1      -2.525  -1.002  -2.007  1.00  0.00    -0.083 Cl
HETATM    7  C   UNL     1      -0.199  -1.140  -0.631  1.00  0.00     0.050 A 
ENDROOT
BRANCH   1   8
HETATM    8  S   UNL     1       2.280  -1.469   0.460  1.00  0.00     0.258 S 
HETATM    9  O   UNL     1       2.669  -1.559   1.824  1.00  0.00    -0.201 OA
HETATM   10  O   UNL     1       2.319  -2.573  -0.434  1.00  0.00    -0.201 OA
BRANCH   8  11
HETATM   11  N   UNL     1       3.220  -0.286  -0.217  1.00  0.00    -0.319 N 
HETATM   12  H   UNL     1       3.676  -0.450  -1.057  1.00  0.00     0.171 HD
BRANCH  11  13
HETATM   13  C   UNL     1       3.361   1.010   0.452  1.00  0.00     0.152 C 
BRANCH  13  14
HETATM   14  B   UNL     1       4.194   1.981  -0.458  1.00  0.00     0.510 B 
BRANCH  14  15
HETATM   15  O   UNL     1       3.529   2.884  -1.328  1.00  0.00    -0.436 OA
HETATM   16  H   UNL     1       2.568   2.779  -1.344  1.00  0.00     0.184 HD
ENDBRANCH  14  15
BRANCH  14  17
HETATM   17  O   UNL     1       5.614   1.951  -0.415  1.00  0.00    -0.436 OA
HETATM   18  H   UNL     1       6.038   2.581  -1.013  1.00  0.00     0.184 HD
ENDBRANCH  14  17
ENDBRANCH  13  14
ENDBRANCH  11  13
ENDBRANCH   8  11
ENDBRANCH   1   8
BRANCH   4  19
HETATM   19  C   UNL     1      -3.383   0.548   0.436  1.00  0.00     0.181 A 
HETATM   20  N   UNL     1      -4.019   1.177   1.455  1.00  0.00    -0.239 N 
HETATM   21  N   UNL     1      -5.308   1.456   0.969  1.00  0.00    -0.046 NA
HETATM   22  H   UNL     1      -3.661   1.388   2.332  1.00  0.00     0.192 HD
HETATM   23  N   UNL     1      -5.359   1.004  -0.237  1.00  0.00    -0.023 NA
HETATM   24  N   UNL     1      -4.238   0.469  -0.562  1.00  0.00    -0.108 NA
ENDBRANCH   4  19
TORSDOF 7
