0NB
  -OEChem-07282321083D

 29 30  0     0  0  0  0  0  0999 V2000
    4.1940    1.9810   -0.4580 B   0  0  0  0  0  0  0  0  0  0  0  0
    5.6140    1.9510   -0.4150 O   0  0  0  0  0  0  0  0  0  0  0  0
    3.5290    2.8840   -1.3280 O   0  0  0  0  0  0  0  0  0  0  0  0
    3.3610    1.0100    0.4520 C   0  0  0  0  0  0  0  0  0  0  0  0
    3.2200   -0.2860   -0.2170 N   0  0  0  0  0  0  0  0  0  0  0  0
    2.2800   -1.4690    0.4600 S   0  0  0  0  0  0  0  0  0  0  0  0
    2.3190   -2.5730   -0.4340 O   0  0  0  0  0  0  0  0  0  0  0  0
    2.6690   -1.5590    1.8240 O   0  0  0  0  0  0  0  0  0  0  0  0
    0.6180   -0.8830    0.4550 C   0  0  0  0  0  0  0  0  0  0  0  0
    0.1390   -0.1620    1.5340 C   0  0  0  0  0  0  0  0  0  0  0  0
   -1.1600    0.3050    1.5340 C   0  0  0  0  0  0  0  0  0  0  0  0
   -1.9900    0.0490    0.4430 C   0  0  0  0  0  0  0  0  0  0  0  0
   -3.3830    0.5480    0.4360 C   0  0  0  0  0  0  0  0  0  0  0  0
   -4.0190    1.1770    1.4550 N   0  0  0  0  0  0  0  0  0  0  0  0
   -5.3080    1.4560    0.9690 N   0  0  0  0  0  0  0  0  0  0  0  0
   -5.3590    1.0040   -0.2370 N   0  0  0  0  0  0  0  0  0  0  0  0
   -4.2380    0.4690   -0.5620 N   0  0  0  0  0  0  0  0  0  0  0  0
   -1.5000   -0.6790   -0.6440 C   0  0  0  0  0  0  0  0  0  0  0  0
   -2.5250   -1.0020   -2.0070 Cl  0  0  0  0  0  0  0  0  0  0  0  0
   -0.1990   -1.1400   -0.6310 C   0  0  0  0  0  0  0  0  0  0  0  0
    6.0380    2.5810   -1.0130 H   0  0  0  0  0  0  0  0  0  0  0  0
    2.5680    2.7790   -1.3440 H   0  0  0  0  0  0  0  0  0  0  0  0
    3.8750    0.8730    1.4040 H   0  0  0  0  0  0  0  0  0  0  0  0
    2.3740    1.4360    0.6310 H   0  0  0  0  0  0  0  0  0  0  0  0
    3.6760   -0.4500   -1.0570 H   0  0  0  0  0  0  0  0  0  0  0  0
    0.7820    0.0350    2.3780 H   0  0  0  0  0  0  0  0  0  0  0  0
   -1.5320    0.8670    2.3770 H   0  0  0  0  0  0  0  0  0  0  0  0
   -3.6610    1.3880    2.3320 H   0  0  0  0  0  0  0  0  0  0  0  0
    0.1830   -1.7000   -1.4720 H   0  0  0  0  0  0  0  0  0  0  0  0
 14 15  1  0  0  0  0
 15 16  2  0  0  0  0
 13 14  1  0  0  0  0
 16 17  1  0  0  0  0
 13 17  2  0  0  0  0
 12 13  1  0  0  0  0
 11 12  2  0  0  0  0
 10 11  1  0  0  0  0
 12 18  1  0  0  0  0
  9 10  2  0  0  0  0
 18 19  1  0  0  0  0
 18 20  2  0  0  0  0
  9 20  1  0  0  0  0
  6  9  1  0  0  0  0
  6  8  2  0  0  0  0
  6  7  2  0  0  0  0
  5  6  1  0  0  0  0
  4  5  1  0  0  0  0
  1  4  1  0  0  0  0
  1  3  1  0  0  0  0
  1  2  1  0  0  0  0
  2 21  1  0  0  0  0
  3 22  1  0  0  0  0
  4 23  1  0  0  0  0
  4 24  1  0  0  0  0
  5 25  1  0  0  0  0
 10 26  1  0  0  0  0
 11 27  1  0  0  0  0
 14 28  1  0  0  0  0
 20 29  1  0  0  0  0
M  END
> <OPENEYE_ISO_SMILES>
B(CNS(=O)(=O)c1ccc(c(c1)Cl)c2[nH]nnn2)(O)O

> <OPENEYE_INCHI>
InChI=1S/C8H9BClN5O4S/c10-7-3-5(20(18,19)11-4-9(16)17)1-2-6(7)8-12-14-15-13-8/h1-3,11,16-17H,4H2,(H,12,13,14,15)

> <OPENEYE_INCHIKEY>
PFJLILKXTJECEF-UHFFFAOYSA-N

> <FORMULA>
C8H9BClN5O4S

$$$$
