REMARK  7 active torsions:
REMARK  status: ('A' for Active; 'I' for Inactive)
REMARK    1  A    between atoms: B_1  and  C_4 
REMARK    2  A    between atoms: B_1  and  O_2 
REMARK    3  A    between atoms: B_1  and  O_3 
REMARK    4  A    between atoms: C_4  and  N_5 
REMARK    5  A    between atoms: N_5  and  S_6 
REMARK    6  A    between atoms: S_6  and  C_9 
REMARK    7  A    between atoms: C_12  and  C_13 
ROOT
HETATM    1  C   UNL     1       0.252  -0.990   0.229  1.00  0.00     0.101 A 
HETATM    2  C   UNL     1      -0.520  -1.134   1.367  1.00  0.00     0.028 A 
HETATM    3  C   UNL     1      -1.834  -0.711   1.372  1.00  0.00     0.017 A 
HETATM    4  C   UNL     1      -2.383  -0.137   0.225  1.00  0.00     0.015 A 
HETATM    5  C   UNL     1      -1.599   0.007  -0.920  1.00  0.00     0.041 A 
HETATM    6  C   UNL     1      -0.287  -0.421  -0.912  1.00  0.00     0.058 A 
HETATM    7 CL   UNL     1       0.692  -0.237  -2.334  1.00  0.00    -0.083 Cl
ENDROOT
BRANCH   1   8
HETATM    8  S   UNL     1       1.931  -1.526   0.234  1.00  0.00     0.259 S 
HETATM    9  O   UNL     1       2.102  -2.319  -0.933  1.00  0.00    -0.201 OA
HETATM   10  O   UNL     1       2.195  -2.007   1.545  1.00  0.00    -0.201 OA
BRANCH   8  11
HETATM   11  N   UNL     1       2.876  -0.182   0.030  1.00  0.00    -0.319 N 
HETATM   12  H   UNL     1       3.431  -0.095  -0.761  1.00  0.00     0.171 HD
BRANCH  11  13
HETATM   13  C   UNL     1       2.873   0.877   1.043  1.00  0.00     0.152 C 
BRANCH  13  14
HETATM   14  B   UNL     1       3.749   2.080   0.544  1.00  0.00     0.510 B 
BRANCH  14  15
HETATM   15  O   UNL     1       3.136   3.178  -0.117  1.00  0.00    -0.436 OA
HETATM   16  H   UNL     1       2.192   3.058  -0.286  1.00  0.00     0.184 HD
ENDBRANCH  14  15
BRANCH  14  17
HETATM   17  O   UNL     1       5.152   2.075   0.759  1.00  0.00    -0.436 OA
HETATM   18  H   UNL     1       5.605   2.859   0.421  1.00  0.00     0.184 HD
ENDBRANCH  14  17
ENDBRANCH  13  14
ENDBRANCH  11  13
ENDBRANCH   8  11
ENDBRANCH   1   8
BRANCH   4  19
HETATM   19  C   UNL     1      -3.791   0.319   0.224  1.00  0.00     0.179 A 
HETATM   20  N   UNL     1      -4.640   0.241   1.227  1.00  0.00    -0.108 NA
HETATM   21  N   UNL     1      -5.778   0.731   0.892  1.00  0.00    -0.023 NA
HETATM   22  N   UNL     1      -5.748   1.144  -0.329  1.00  0.00    -0.046 NA
HETATM   23  N   UNL     1      -4.452   0.892  -0.812  1.00  0.00    -0.239 N 
HETATM   24  H   UNL     1      -4.105   1.086  -1.697  1.00  0.00     0.192 HD
ENDBRANCH   4  19
TORSDOF 7
