0ND
  -OEChem-07282321083D

 29 30  0     0  0  0  0  0  0999 V2000
    3.7490    2.0800    0.5440 B   0  0  0  0  0  0  0  0  0  0  0  0
    3.1360    3.1780   -0.1170 O   0  0  0  0  0  0  0  0  0  0  0  0
    5.1520    2.0750    0.7590 O   0  0  0  0  0  0  0  0  0  0  0  0
    2.8730    0.8770    1.0430 C   0  0  0  0  0  0  0  0  0  0  0  0
    2.8760   -0.1820    0.0300 N   0  0  0  0  0  0  0  0  0  0  0  0
    1.9310   -1.5260    0.2340 S   0  0  0  0  0  0  0  0  0  0  0  0
    2.1020   -2.3190   -0.9330 O   0  0  0  0  0  0  0  0  0  0  0  0
    2.1950   -2.0070    1.5450 O   0  0  0  0  0  0  0  0  0  0  0  0
    0.2520   -0.9900    0.2290 C   0  0  0  0  0  0  0  0  0  0  0  0
   -0.5200   -1.1340    1.3670 C   0  0  0  0  0  0  0  0  0  0  0  0
   -1.8340   -0.7110    1.3720 C   0  0  0  0  0  0  0  0  0  0  0  0
   -2.3830   -0.1370    0.2250 C   0  0  0  0  0  0  0  0  0  0  0  0
   -3.7910    0.3190    0.2240 C   0  0  0  0  0  0  0  0  0  0  0  0
   -4.4520    0.8920   -0.8120 N   0  0  0  0  0  0  0  0  0  0  0  0
   -5.7480    1.1440   -0.3290 N   0  0  0  0  0  0  0  0  0  0  0  0
   -5.7780    0.7310    0.8920 N   0  0  0  0  0  0  0  0  0  0  0  0
   -4.6400    0.2410    1.2270 N   0  0  0  0  0  0  0  0  0  0  0  0
   -1.5990    0.0070   -0.9200 C   0  0  0  0  0  0  0  0  0  0  0  0
   -0.2870   -0.4210   -0.9120 C   0  0  0  0  0  0  0  0  0  0  0  0
    0.6920   -0.2370   -2.3340 Cl  0  0  0  0  0  0  0  0  0  0  0  0
    2.1920    3.0580   -0.2860 H   0  0  0  0  0  0  0  0  0  0  0  0
    5.6050    2.8590    0.4210 H   0  0  0  0  0  0  0  0  0  0  0  0
    3.2850    0.4890    1.9740 H   0  0  0  0  0  0  0  0  0  0  0  0
    1.8500    1.2160    1.2100 H   0  0  0  0  0  0  0  0  0  0  0  0
    3.4310   -0.0950   -0.7610 H   0  0  0  0  0  0  0  0  0  0  0  0
   -0.0940   -1.5780    2.2550 H   0  0  0  0  0  0  0  0  0  0  0  0
   -2.4360   -0.8240    2.2610 H   0  0  0  0  0  0  0  0  0  0  0  0
   -4.1050    1.0860   -1.6970 H   0  0  0  0  0  0  0  0  0  0  0  0
   -2.0190    0.4500   -1.8110 H   0  0  0  0  0  0  0  0  0  0  0  0
 16 17  1  0  0  0  0
 15 16  2  0  0  0  0
 13 17  2  0  0  0  0
 14 15  1  0  0  0  0
 13 14  1  0  0  0  0
 12 13  1  0  0  0  0
 11 12  2  0  0  0  0
 10 11  1  0  0  0  0
 12 18  1  0  0  0  0
  9 10  2  0  0  0  0
 18 19  2  0  0  0  0
  9 19  1  0  0  0  0
  6  9  1  0  0  0  0
  6  7  2  0  0  0  0
 19 20  1  0  0  0  0
  6  8  2  0  0  0  0
  5  6  1  0  0  0  0
  4  5  1  0  0  0  0
  1  4  1  0  0  0  0
  1  2  1  0  0  0  0
  1  3  1  0  0  0  0
  2 21  1  0  0  0  0
  3 22  1  0  0  0  0
  4 23  1  0  0  0  0
  4 24  1  0  0  0  0
  5 25  1  0  0  0  0
 10 26  1  0  0  0  0
 11 27  1  0  0  0  0
 14 28  1  0  0  0  0
 18 29  1  0  0  0  0
M  END
> <OPENEYE_ISO_SMILES>
B(CNS(=O)(=O)c1ccc(cc1Cl)c2[nH]nnn2)(O)O

> <OPENEYE_INCHI>
InChI=1S/C8H9BClN5O4S/c10-6-3-5(8-12-14-15-13-8)1-2-7(6)20(18,19)11-4-9(16)17/h1-3,11,16-17H,4H2,(H,12,13,14,15)

> <OPENEYE_INCHIKEY>
NTFXGXIWMYOTKN-UHFFFAOYSA-N

> <FORMULA>
C8H9BClN5O4S

$$$$
