0NE
  -OEChem-07282321083D

 32 33  0     0  0  0  0  0  0999 V2000
   -3.7900   -2.1060   -0.8360 B   0  0  0  0  0  0  0  0  0  0  0  0
   -3.5670   -3.2980   -1.5740 O   0  0  0  0  0  0  0  0  0  0  0  0
   -4.9890   -1.3680   -1.0220 O   0  0  0  0  0  0  0  0  0  0  0  0
   -2.7130   -1.6070    0.1920 C   0  0  0  0  0  0  0  0  0  0  0  0
   -2.7610   -0.1450    0.2790 N   0  0  0  0  0  0  0  0  0  0  0  0
   -1.8220    0.6500    1.3880 S   0  0  0  0  0  0  0  0  0  0  0  0
   -2.0150    2.0390    1.1540 O   0  0  0  0  0  0  0  0  0  0  0  0
   -2.0720    0.0310    2.6420 O   0  0  0  0  0  0  0  0  0  0  0  0
   -0.1410    0.3060    0.9890 C   0  0  0  0  0  0  0  0  0  0  0  0
    0.6320   -0.4480    1.8530 C   0  0  0  0  0  0  0  0  0  0  0  0
    1.9480   -0.7250    1.5440 C   0  0  0  0  0  0  0  0  0  0  0  0
    2.4980   -0.2430    0.3570 C   0  0  0  0  0  0  0  0  0  0  0  0
    3.9090   -0.5370    0.0190 C   0  0  0  0  0  0  0  0  0  0  0  0
    4.7830   -1.2590    0.7640 N   0  0  0  0  0  0  0  0  0  0  0  0
    5.9820   -1.2560    0.0300 N   0  0  0  0  0  0  0  0  0  0  0  0
    5.7630   -0.5750   -1.0420 N   0  0  0  0  0  0  0  0  0  0  0  0
    4.5510   -0.1520   -1.0640 N   0  0  0  0  0  0  0  0  0  0  0  0
    1.7140    0.5170   -0.5110 C   0  0  0  0  0  0  0  0  0  0  0  0
    0.4000    0.7870   -0.1910 C   0  0  0  0  0  0  0  0  0  0  0  0
   -0.4510    1.6030   -1.1300 C   0  0  0  0  0  0  0  0  0  0  0  0
   -0.7890    2.8150   -0.5190 F   0  0  0  0  0  0  0  0  0  0  0  0
    0.2640    1.8570   -2.3050 F   0  0  0  0  0  0  0  0  0  0  0  0
   -1.6170    0.8950   -1.4370 F   0  0  0  0  0  0  0  0  0  0  0  0
   -4.2870   -3.5260   -2.1780 H   0  0  0  0  0  0  0  0  0  0  0  0
   -5.0500   -0.5720   -0.4760 H   0  0  0  0  0  0  0  0  0  0  0  0
   -2.9190   -2.0360    1.1720 H   0  0  0  0  0  0  0  0  0  0  0  0
   -1.7220   -1.9180   -0.1400 H   0  0  0  0  0  0  0  0  0  0  0  0
   -3.3440    0.3570   -0.3120 H   0  0  0  0  0  0  0  0  0  0  0  0
    0.2040   -0.8210    2.7720 H   0  0  0  0  0  0  0  0  0  0  0  0
    2.5500   -1.3140    2.2200 H   0  0  0  0  0  0  0  0  0  0  0  0
    4.6160   -1.6850    1.6190 H   0  0  0  0  0  0  0  0  0  0  0  0
    2.1350    0.8930   -1.4320 H   0  0  0  0  0  0  0  0  0  0  0  0
 16 17  1  0  0  0  0
 15 16  2  0  0  0  0
 13 17  2  0  0  0  0
 14 15  1  0  0  0  0
 13 14  1  0  0  0  0
 12 13  1  0  0  0  0
 11 12  2  0  0  0  0
 10 11  1  0  0  0  0
 12 18  1  0  0  0  0
  9 10  2  0  0  0  0
 18 19  2  0  0  0  0
  9 19  1  0  0  0  0
  6  9  1  0  0  0  0
  6  8  2  0  0  0  0
 19 20  1  0  0  0  0
  6  7  2  0  0  0  0
  5  6  1  0  0  0  0
 20 22  1  0  0  0  0
 20 21  1  0  0  0  0
 20 23  1  0  0  0  0
  4  5  1  0  0  0  0
  1  4  1  0  0  0  0
  1  2  1  0  0  0  0
  1  3  1  0  0  0  0
  2 24  1  0  0  0  0
  3 25  1  0  0  0  0
  4 26  1  0  0  0  0
  4 27  1  0  0  0  0
  5 28  1  0  0  0  0
 10 29  1  0  0  0  0
 11 30  1  0  0  0  0
 14 31  1  0  0  0  0
 18 32  1  0  0  0  0
M  END
> <OPENEYE_ISO_SMILES>
B(CNS(=O)(=O)c1ccc(cc1C(F)(F)F)c2[nH]nnn2)(O)O

> <OPENEYE_INCHI>
InChI=1S/C9H9BF3N5O4S/c11-9(12,13)6-3-5(8-15-17-18-16-8)1-2-7(6)23(21,22)14-4-10(19)20/h1-3,14,19-20H,4H2,(H,15,16,17,18)

> <OPENEYE_INCHIKEY>
KJEUORQIESDSSV-UHFFFAOYSA-N

> <FORMULA>
C9H9BF3N5O4S

$$$$
