REMARK  6 active torsions:
REMARK  status: ('A' for Active; 'I' for Inactive)
REMARK    1  A    between atoms: B_1  and  C_4 
REMARK    2  A    between atoms: B_1  and  O_2 
REMARK    3  A    between atoms: B_1  and  O_3 
REMARK    4  A    between atoms: C_4  and  N_5 
REMARK    5  A    between atoms: N_5  and  S_6 
REMARK    6  A    between atoms: S_6  and  C_9 
ROOT
HETATM    1  N   UNL     1       0.817   0.451   0.369  1.00  0.00    -0.322 N 
HETATM    2  H   UNL     1       1.235   0.757   1.189  1.00  0.00     0.171 HD
ENDROOT
BRANCH   1   3
HETATM    3  C   UNL     1       1.621  -0.214  -0.660  1.00  0.00     0.152 C 
BRANCH   3   4
HETATM    4  B   UNL     1       3.086  -0.411  -0.132  1.00  0.00     0.510 B 
BRANCH   4   5
HETATM    5  O   UNL     1       4.035   0.638  -0.264  1.00  0.00    -0.436 OA
HETATM    6  H   UNL     1       3.711   1.401  -0.761  1.00  0.00     0.184 HD
ENDBRANCH   4   5
BRANCH   4   7
HETATM    7  O   UNL     1       3.462  -1.635   0.481  1.00  0.00    -0.436 OA
HETATM    8  H   UNL     1       4.382  -1.661   0.776  1.00  0.00     0.184 HD
ENDBRANCH   4   7
ENDBRANCH   3   4
ENDBRANCH   1   3
BRANCH   1   9
HETATM    9  S   UNL     1      -0.806   0.679   0.133  1.00  0.00     0.238 S 
HETATM   10  O   UNL     1      -0.891   1.291  -1.146  1.00  0.00    -0.205 OA
HETATM   11  O   UNL     1      -1.238   1.361   1.302  1.00  0.00    -0.205 OA
BRANCH   9  12
HETATM   12  C   UNL     1      -1.496  -0.998   0.083  1.00  0.00     0.277 C 
HETATM   13 CL   UNL     1      -3.279  -0.907  -0.172  1.00  0.00    -0.113 Cl
ENDBRANCH   9  12
ENDBRANCH   1   9
TORSDOF 6
