0NG
  -OEChem-07282321083D

 17 16  0     0  0  0  0  0  0999 V2000
    3.0860   -0.4110   -0.1320 B   0  0  0  0  0  0  0  0  0  0  0  0
    4.0350    0.6380   -0.2640 O   0  0  0  0  0  0  0  0  0  0  0  0
    3.4620   -1.6350    0.4810 O   0  0  0  0  0  0  0  0  0  0  0  0
    1.6210   -0.2140   -0.6600 C   0  0  0  0  0  0  0  0  0  0  0  0
    0.8170    0.4510    0.3690 N   0  0  0  0  0  0  0  0  0  0  0  0
   -0.8060    0.6790    0.1330 S   0  0  0  0  0  0  0  0  0  0  0  0
   -1.2380    1.3610    1.3020 O   0  0  0  0  0  0  0  0  0  0  0  0
   -0.8910    1.2910   -1.1460 O   0  0  0  0  0  0  0  0  0  0  0  0
   -1.4960   -0.9980    0.0830 C   0  0  0  0  0  0  0  0  0  0  0  0
   -3.2790   -0.9070   -0.1720 Cl  0  0  0  0  0  0  0  0  0  0  0  0
    3.7110    1.4010   -0.7610 H   0  0  0  0  0  0  0  0  0  0  0  0
    4.3820   -1.6610    0.7760 H   0  0  0  0  0  0  0  0  0  0  0  0
    1.6380    0.4000   -1.5600 H   0  0  0  0  0  0  0  0  0  0  0  0
    1.1840   -1.1850   -0.8910 H   0  0  0  0  0  0  0  0  0  0  0  0
    1.2350    0.7570    1.1890 H   0  0  0  0  0  0  0  0  0  0  0  0
   -1.0400   -1.5550   -0.7350 H   0  0  0  0  0  0  0  0  0  0  0  0
   -1.2890   -1.5040    1.0260 H   0  0  0  0  0  0  0  0  0  0  0  0
  9 10  1  0  0  0  0
  6  8  2  0  0  0  0
  6  9  1  0  0  0  0
  6  7  2  0  0  0  0
  5  6  1  0  0  0  0
  4  5  1  0  0  0  0
  1  4  1  0  0  0  0
  1  2  1  0  0  0  0
  1  3  1  0  0  0  0
  2 11  1  0  0  0  0
  3 12  1  0  0  0  0
  4 13  1  0  0  0  0
  4 14  1  0  0  0  0
  5 15  1  0  0  0  0
  9 16  1  0  0  0  0
  9 17  1  0  0  0  0
M  END
> <OPENEYE_ISO_SMILES>
B(CNS(=O)(=O)CCl)(O)O

> <OPENEYE_INCHI>
InChI=1S/C2H7BClNO4S/c4-2-10(8,9)5-1-3(6)7/h5-7H,1-2H2

> <OPENEYE_INCHIKEY>
DYDOICABPAYWAK-UHFFFAOYSA-N

> <FORMULA>
C2H7BClNO4S

$$$$
