REMARK  6 active torsions:
REMARK  status: ('A' for Active; 'I' for Inactive)
REMARK    1  A    between atoms: C_1  and  CA_4 
REMARK    2  A    between atoms: C_1  and  OXT_12 
REMARK    3  A    between atoms: N_3  and  CA_4 
REMARK    4  A    between atoms: CA_4  and  C_5 
REMARK    5  A    between atoms: C_5  and  N_6 
REMARK    6  A    between atoms: N_6  and  C_7 
ROOT
HETATM    1  CA  UNL     1       0.687  -0.441  -0.507  1.00  0.00     0.332 C 
ENDROOT
BRANCH   1   2
HETATM    2  C   UNL     1       1.904   0.277   0.016  1.00  0.00     0.175 C 
HETATM    3  O   UNL     1       2.494  -0.155   0.977  1.00  0.00    -0.648 OA
BRANCH   2   4
HETATM    4  OXT UNL     1       2.330   1.400  -0.584  1.00  0.00    -0.775 OA
HETATM    5  HXT UNL     1       3.113   1.828  -0.210  1.00  0.00     0.167 HD
ENDBRANCH   2   4
ENDBRANCH   1   2
BRANCH   1   6
HETATM    6  N   UNL     1       0.693  -1.829  -0.026  1.00  0.00     0.094 N 
HETATM    7  H1  UNL     1       1.484  -2.336  -0.396  1.00  0.00     0.314 HD
HETATM    8  H2  UNL     1       0.681  -1.863   0.982  1.00  0.00     0.314 HD
ENDBRANCH   1   6
BRANCH   1   9
HETATM    9  C   UNL     1      -0.575   0.266  -0.008  1.00  0.00     0.168 C 
BRANCH   9  10
HETATM   10  N   UNL     1      -1.757  -0.499  -0.416  1.00  0.00    -0.366 N 
HETATM   11  H   UNL     1      -1.652  -1.318  -0.924  1.00  0.00     0.161 HD
BRANCH  10  12
HETATM   12  C   UNL     1      -2.988  -0.063  -0.085  1.00  0.00     0.348 C 
HETATM   13  O   UNL     1      -3.119   0.961   0.551  1.00  0.00    -0.284 OA
ENDBRANCH  10  12
ENDBRANCH   9  10
ENDBRANCH   1   9
TORSDOF 6
