0RJ
  -OEChem-07282321083D

 17 16  0     1  0  0  0  0  0999 V2000
    1.9040    0.2770    0.0160 C   0  0  0  0  0  0  0  0  0  0  0  0
    2.4940   -0.1550    0.9770 O   0  0  0  0  0  0  0  0  0  0  0  0
    0.6930   -1.8290   -0.0260 N   0  0  0  0  0  0  0  0  0  0  0  0
    0.6870   -0.4410   -0.5070 C   0  0  1  0  0  0  0  0  0  0  0  0
   -0.5750    0.2660   -0.0080 C   0  0  0  0  0  0  0  0  0  0  0  0
   -1.7570   -0.4990   -0.4160 N   0  0  0  0  0  0  0  0  0  0  0  0
   -2.9880   -0.0630   -0.0850 C   0  0  0  0  0  0  0  0  0  0  0  0
   -3.1190    0.9610    0.5510 O   0  0  0  0  0  0  0  0  0  0  0  0
    1.4840   -2.3360   -0.3960 H   0  0  0  0  0  0  0  0  0  0  0  0
    0.7010   -0.4330   -1.5970 H   0  0  0  0  0  0  0  0  0  0  0  0
   -0.5460    0.3370    1.0790 H   0  0  0  0  0  0  0  0  0  0  0  0
   -0.6250    1.2670   -0.4370 H   0  0  0  0  0  0  0  0  0  0  0  0
   -1.6520   -1.3180   -0.9240 H   0  0  0  0  0  0  0  0  0  0  0  0
   -3.8590   -0.6270   -0.3850 H   0  0  0  0  0  0  0  0  0  0  0  0
    0.6810   -1.8630    0.9820 H   0  0  0  0  0  0  0  0  0  0  0  0
    2.3300    1.4000   -0.5840 O   0  0  0  0  0  0  0  0  0  0  0  0
    3.1130    1.8280   -0.2100 H   0  0  0  0  0  0  0  0  0  0  0  0
  3  4  1  0  0  0  0
  7  8  2  0  0  0  0
  1  4  1  0  0  0  0
  4  5  1  0  0  0  0
  6  7  1  0  0  0  0
  1  2  2  0  0  0  0
  5  6  1  0  0  0  0
  3  9  1  0  0  0  0
  4 10  1  0  0  0  0
  5 11  1  0  0  0  0
  5 12  1  0  0  0  0
  6 13  1  0  0  0  0
  7 14  1  0  0  0  0
  3 15  1  0  0  0  0
  1 16  1  0  0  0  0
 16 17  1  0  0  0  0
M  END
> <OPENEYE_ISO_SMILES>
C([C@@H](C(=O)O)N)NC=O

> <OPENEYE_INCHI>
InChI=1S/C4H8N2O3/c5-3(4(8)9)1-6-2-7/h2-3H,1,5H2,(H,6,7)(H,8,9)/t3-/m0/s1

> <OPENEYE_INCHIKEY>
VJGQHMAKHZCYRV-VKHMYHEASA-N

> <FORMULA>
C4H8N2O3

$$$$
