105
  -OEChem-07282321083D

 32 33  0     0  0  0  0  0  0999 V2000
   -0.8170    0.4240    4.4680 B   0  0  0  0  0  0  0  0  0  0  0  0
   -1.5580    0.2610    5.6690 O   0  0  0  0  0  0  0  0  0  0  0  0
    0.5910    0.5940    4.5210 O   0  0  0  0  0  0  0  0  0  0  0  0
   -1.5560    0.4180    3.0830 C   0  0  0  0  0  0  0  0  0  0  0  0
   -0.5790    0.6030    2.0080 N   0  0  0  0  0  0  0  0  0  0  0  0
    0.0120   -0.4680    1.4430 C   0  0  0  0  0  0  0  0  0  0  0  0
   -0.2650   -1.5880    1.8260 O   0  0  0  0  0  0  0  0  0  0  0  0
    0.9940   -0.2820    0.3620 C   0  0  0  0  0  0  0  0  0  0  0  0
    1.9390    0.0090   -1.6200 N   0  0  0  0  0  0  0  0  0  0  0  0
    2.8160   -0.0360   -0.7910 O   0  0  0  0  0  0  0  0  0  0  0  0
    2.3620   -0.2070    0.4510 C   0  0  0  0  0  0  0  0  0  0  0  0
    0.7510   -0.1220   -1.0870 C   0  0  0  0  0  0  0  0  0  0  0  0
    3.1890   -0.3060    1.7070 C   0  0  0  0  0  0  0  0  0  0  0  0
   -0.5560   -0.1180   -1.7860 C   0  0  0  0  0  0  0  0  0  0  0  0
   -0.6180    0.1610   -3.1510 C   0  0  0  0  0  0  0  0  0  0  0  0
    0.8350    0.4970   -4.0380 Cl  0  0  0  0  0  0  0  0  0  0  0  0
   -1.8390    0.1570   -3.7990 C   0  0  0  0  0  0  0  0  0  0  0  0
   -2.9970   -0.1100   -3.0930 C   0  0  0  0  0  0  0  0  0  0  0  0
   -2.9410   -0.3810   -1.7370 C   0  0  0  0  0  0  0  0  0  0  0  0
   -1.7270   -0.3870   -1.0810 C   0  0  0  0  0  0  0  0  0  0  0  0
   -0.9220    0.2950    6.3960 H   0  0  0  0  0  0  0  0  0  0  0  0
    0.8950    0.6870    3.6080 H   0  0  0  0  0  0  0  0  0  0  0  0
   -2.2840    1.2280    3.0560 H   0  0  0  0  0  0  0  0  0  0  0  0
   -2.0680   -0.5340    2.9490 H   0  0  0  0  0  0  0  0  0  0  0  0
   -0.3570    1.4960    1.7020 H   0  0  0  0  0  0  0  0  0  0  0  0
    4.2450   -0.2150    1.4540 H   0  0  0  0  0  0  0  0  0  0  0  0
    2.9080    0.4950    2.3910 H   0  0  0  0  0  0  0  0  0  0  0  0
    3.0110   -1.2690    2.1840 H   0  0  0  0  0  0  0  0  0  0  0  0
   -1.8890    0.3680   -4.8570 H   0  0  0  0  0  0  0  0  0  0  0  0
   -3.9500   -0.1070   -3.6020 H   0  0  0  0  0  0  0  0  0  0  0  0
   -3.8490   -0.5900   -1.1910 H   0  0  0  0  0  0  0  0  0  0  0  0
   -1.6850   -0.6000   -0.0230 H   0  0  0  0  0  0  0  0  0  0  0  0
  1  2  1  0  0  0  0
  1  3  1  0  0  0  0
  1  4  1  0  0  0  0
  2 21  1  0  0  0  0
  3 22  1  0  0  0  0
  4  5  1  0  0  0  0
  4 23  1  0  0  0  0
  4 24  1  0  0  0  0
  5  6  1  0  0  0  0
  5 25  1  0  0  0  0
  6  7  2  0  0  0  0
  6  8  1  0  0  0  0
  8 11  2  0  0  0  0
  8 12  1  0  0  0  0
  9 10  1  0  0  0  0
  9 12  2  0  0  0  0
 10 11  1  0  0  0  0
 11 13  1  0  0  0  0
 12 14  1  0  0  0  0
 13 26  1  0  0  0  0
 13 27  1  0  0  0  0
 13 28  1  0  0  0  0
 14 15  2  0  0  0  0
 14 20  1  0  0  0  0
 15 16  1  0  0  0  0
 15 17  1  0  0  0  0
 17 18  2  0  0  0  0
 17 29  1  0  0  0  0
 18 19  1  0  0  0  0
 18 30  1  0  0  0  0
 19 20  2  0  0  0  0
 19 31  1  0  0  0  0
 20 32  1  0  0  0  0
M  END
> <OPENEYE_ISO_SMILES>
B(CNC(=O)c1c(onc1c2ccccc2Cl)C)(O)O

> <OPENEYE_INCHI>
InChI=1S/C12H12BClN2O4/c1-7-10(12(17)15-6-13(18)19)11(16-20-7)8-4-2-3-5-9(8)14/h2-5,18-19H,6H2,1H3,(H,15,17)

> <OPENEYE_INCHIKEY>
LSXNXXCBOPILJR-UHFFFAOYSA-N

> <FORMULA>
C12H12BClN2O4

$$$$
