REMARK  6 active torsions:
REMARK  status: ('A' for Active; 'I' for Inactive)
REMARK    1  A    between atoms: B_1  and  O_2 
REMARK    2  A    between atoms: B_1  and  O_3 
REMARK    3  A    between atoms: B_1  and  C_4 
REMARK    4  A    between atoms: C_4  and  N_5 
REMARK       I    between atoms: N_5  and  C_6 
REMARK    5  A    between atoms: C_6  and  C_8 
REMARK    6  A    between atoms: C_12  and  C_14 
ROOT
HETATM    1  C   UNL     1       0.994  -0.282   0.362  1.00  0.00     0.095 A 
HETATM    2  N   UNL     1       1.939   0.009  -1.620  1.00  0.00    -0.127 NA
HETATM    3  O   UNL     1       2.816  -0.036  -0.791  1.00  0.00    -0.217 OA
HETATM    4  C   UNL     1       2.362  -0.207   0.451  1.00  0.00     0.093 A 
HETATM    5  C   UNL     1       0.751  -0.122  -1.087  1.00  0.00     0.114 A 
HETATM    6  C   UNL     1       3.189  -0.306   1.707  1.00  0.00     0.080 C 
ENDROOT
BRANCH   1   7
HETATM    7  C   UNL     1       0.012  -0.468   1.443  1.00  0.00     0.256 C 
HETATM    8  N   UNL     1      -0.579   0.603   2.008  1.00  0.00    -0.360 N 
HETATM    9  H   UNL     1      -0.357   1.496   1.702  1.00  0.00     0.161 HD
HETATM   10  O   UNL     1      -0.265  -1.588   1.826  1.00  0.00    -0.268 OA
BRANCH   8  11
HETATM   11  C   UNL     1      -1.556   0.418   3.083  1.00  0.00     0.143 C 
BRANCH  11  12
HETATM   12  B   UNL     1      -0.817   0.424   4.468  1.00  0.00     0.510 B 
BRANCH  12  13
HETATM   13  O   UNL     1      -1.558   0.261   5.669  1.00  0.00    -0.436 OA
HETATM   14  H   UNL     1      -0.922   0.295   6.396  1.00  0.00     0.184 HD
ENDBRANCH  12  13
BRANCH  12  15
HETATM   15  O   UNL     1       0.591   0.594   4.521  1.00  0.00    -0.436 OA
HETATM   16  H   UNL     1       0.895   0.687   3.608  1.00  0.00     0.184 HD
ENDBRANCH  12  15
ENDBRANCH  11  12
ENDBRANCH   8  11
ENDBRANCH   1   7
BRANCH   5  17
HETATM   17  C   UNL     1      -0.556  -0.118  -1.786  1.00  0.00     0.018 A 
HETATM   18  C   UNL     1      -0.618   0.161  -3.151  1.00  0.00     0.046 A 
HETATM   19 CL   UNL     1       0.835   0.497  -4.038  1.00  0.00    -0.083 Cl
HETATM   20  C   UNL     1      -1.839   0.157  -3.799  1.00  0.00     0.025 A 
HETATM   21  C   UNL     1      -2.997  -0.110  -3.093  1.00  0.00     0.002 A 
HETATM   22  C   UNL     1      -2.941  -0.381  -1.737  1.00  0.00     0.001 A 
HETATM   23  C   UNL     1      -1.727  -0.387  -1.081  1.00  0.00     0.015 A 
ENDBRANCH   5  17
TORSDOF 6
