17K
  -OEChem-07282321083D

 54 56  0     1  0  0  0  0  0999 V2000
   -6.5680   -0.1110    0.9370 C   0  0  0  0  0  0  0  0  0  0  0  0
   -7.6760   -0.9320    0.8460 C   0  0  0  0  0  0  0  0  0  0  0  0
   -8.0850   -1.4080   -0.3860 C   0  0  0  0  0  0  0  0  0  0  0  0
   -7.3840   -1.0620   -1.5270 C   0  0  0  0  0  0  0  0  0  0  0  0
   -6.2770   -0.2410   -1.4360 C   0  0  0  0  0  0  0  0  0  0  0  0
   -5.8680    0.2340   -0.2040 C   0  0  0  0  0  0  0  0  0  0  0  0
   -4.6630    1.1340   -0.1050 C   0  0  0  0  0  0  0  0  0  0  0  0
   -3.4260    0.2980    0.0970 C   0  0  0  0  0  0  0  0  0  0  0  0
   -3.5140   -0.9060    0.1550 O   0  0  0  0  0  0  0  0  0  0  0  0
   -2.2270    0.8900    0.2130 O   0  0  0  0  0  0  0  0  0  0  0  0
   -1.0790    0.0220    0.4060 C   0  0  0  0  0  0  0  0  0  0  0  0
    0.1890    0.8700    0.5150 C   0  0  1  0  0  0  0  0  0  0  0  0
    0.4070    1.8310   -1.0080 S   0  0  2  0  0  0  0  0  0  0  0  0
   -0.8110    2.4870   -1.3320 O   0  0  0  0  0  0  0  0  0  0  0  0
    0.5140    0.7560   -2.0790 O   0  0  0  0  0  0  0  0  0  0  0  0
    0.0640    1.8230    1.7060 C   0  0  0  0  0  0  0  0  0  0  0  0
    1.3990   -0.0450    0.7190 C   0  0  2  0  0  0  0  0  0  0  0  0
    1.1630   -0.9310    1.9150 C   0  0  0  0  0  0  0  0  0  0  0  0
    0.1160   -1.7700    1.9330 O   0  0  0  0  0  0  0  0  0  0  0  0
    1.9180   -0.8860    2.8580 O   0  0  0  0  0  0  0  0  0  0  0  0
    2.5990    0.7730    0.9430 N   0  0  0  0  0  0  0  0  0  0  0  0
    3.6770    0.2740    0.2360 C   0  0  0  0  0  0  0  0  0  0  0  0
    3.8240   -1.0060   -0.1960 N   0  0  0  0  0  0  0  0  0  0  0  0
    3.0060   -2.1090   -0.0700 C   0  0  0  0  0  0  0  0  0  0  0  0
    3.3680   -3.2940   -0.5900 C   0  0  0  0  0  0  0  0  0  0  0  0
    4.5940   -3.4340   -1.2750 C   0  0  0  0  0  0  0  0  0  0  0  0
    5.4170   -2.3660   -1.4130 C   0  0  0  0  0  0  0  0  0  0  0  0
    5.0340   -1.1180   -0.8650 C   0  0  0  0  0  0  0  0  0  0  0  0
    5.6520    0.0990   -0.8540 C   0  0  0  0  0  0  0  0  0  0  0  0
    4.8000    1.0000   -0.1620 C   0  0  0  0  0  0  0  0  0  0  0  0
    5.0450    2.3730    0.0800 C   0  0  0  0  0  0  0  0  0  0  0  0
    4.2320    3.0360    0.6900 O   0  0  0  0  0  0  0  0  0  0  0  0
   -6.2520    0.2650    1.8990 H   0  0  0  0  0  0  0  0  0  0  0  0
   -8.2240   -1.2010    1.7370 H   0  0  0  0  0  0  0  0  0  0  0  0
   -8.9500   -2.0500   -0.4570 H   0  0  0  0  0  0  0  0  0  0  0  0
   -7.7030   -1.4350   -2.4890 H   0  0  0  0  0  0  0  0  0  0  0  0
   -5.7290    0.0290   -2.3270 H   0  0  0  0  0  0  0  0  0  0  0  0
   -4.5650    1.7120   -1.0240 H   0  0  0  0  0  0  0  0  0  0  0  0
   -4.7850    1.8130    0.7390 H   0  0  0  0  0  0  0  0  0  0  0  0
   -1.2100   -0.5560    1.3210 H   0  0  0  0  0  0  0  0  0  0  0  0
   -0.9900   -0.6570   -0.4420 H   0  0  0  0  0  0  0  0  0  0  0  0
    0.6360    1.1020   -2.9740 H   0  0  0  0  0  0  0  0  0  0  0  0
   -0.0660    1.2450    2.6210 H   0  0  0  0  0  0  0  0  0  0  0  0
    0.9680    2.4270    1.7840 H   0  0  0  0  0  0  0  0  0  0  0  0
   -0.7970    2.4740    1.5610 H   0  0  0  0  0  0  0  0  0  0  0  0
    1.5410   -0.6620   -0.1680 H   0  0  0  0  0  0  0  0  0  0  0  0
    0.0060   -2.3180    2.7220 H   0  0  0  0  0  0  0  0  0  0  0  0
    2.4270    1.7390    0.7080 H   0  0  0  0  0  0  0  0  0  0  0  0
    2.0650   -2.0200    0.4510 H   0  0  0  0  0  0  0  0  0  0  0  0
    2.7160   -4.1470   -0.4810 H   0  0  0  0  0  0  0  0  0  0  0  0
    4.8750   -4.3910   -1.6880 H   0  0  0  0  0  0  0  0  0  0  0  0
    6.3560   -2.4660   -1.9360 H   0  0  0  0  0  0  0  0  0  0  0  0
    6.6100    0.3340   -1.2940 H   0  0  0  0  0  0  0  0  0  0  0  0
    5.9560    2.8300   -0.2790 H   0  0  0  0  0  0  0  0  0  0  0  0
  2  3  2  0  0  0  0
  1  2  1  0  0  0  0
 13 14  2  0  0  0  0
  3  4  1  0  0  0  0
  1  6  2  0  0  0  0
 13 15  1  0  0  0  0
 12 13  1  0  0  0  0
  8  9  2  0  0  0  0
 10 11  1  0  0  0  0
 11 12  1  0  0  0  0
  4  5  2  0  0  0  0
  5  6  1  0  0  0  0
  6  7  1  0  0  0  0
  8 10  1  0  0  0  0
  7  8  1  0  0  0  0
 12 16  1  0  0  0  0
 12 17  1  0  0  0  0
 17 21  1  0  0  0  0
 17 18  1  0  0  0  0
 24 25  2  0  0  0  0
 23 24  1  0  0  0  0
 21 22  1  0  0  0  0
 18 20  2  0  0  0  0
 25 26  1  0  0  0  0
 18 19  1  0  0  0  0
 22 23  1  0  0  0  0
 23 28  1  0  0  0  0
 22 30  2  0  0  0  0
 26 27  2  0  0  0  0
 31 32  2  0  0  0  0
 27 28  1  0  0  0  0
 28 29  2  0  0  0  0
 30 31  1  0  0  0  0
 29 30  1  0  0  0  0
  1 33  1  0  0  0  0
  2 34  1  0  0  0  0
  3 35  1  0  0  0  0
  4 36  1  0  0  0  0
  5 37  1  0  0  0  0
  7 38  1  0  0  0  0
  7 39  1  0  0  0  0
 11 40  1  0  0  0  0
 11 41  1  0  0  0  0
 15 42  1  0  0  0  0
 16 43  1  0  0  0  0
 16 44  1  0  0  0  0
 16 45  1  0  0  0  0
 17 46  1  0  0  0  0
 19 47  1  0  0  0  0
 21 48  1  0  0  0  0
 24 49  1  0  0  0  0
 25 50  1  0  0  0  0
 26 51  1  0  0  0  0
 27 52  1  0  0  0  0
 29 53  1  0  0  0  0
 31 54  1  0  0  0  0
M  END
> <OPENEYE_ISO_SMILES>
C[C@](COC(=O)Cc1ccccc1)([C@H](C(=O)O)Nc2c(cc3n2cccc3)C=O)[S@](=O)O

> <OPENEYE_INCHI>
InChI=1S/C22H22N2O7S/c1-22(32(29)30,14-31-18(26)11-15-7-3-2-4-8-15)19(21(27)28)23-20-16(13-25)12-17-9-5-6-10-24(17)20/h2-10,12-13,19,23H,11,14H2,1H3,(H,27,28)(H,29,30)/t19-,22-/m0/s1

> <OPENEYE_INCHIKEY>
WQTYZCOJEVFYJF-UGKGYDQZSA-N

> <FORMULA>
C22H22N2O7S

$$$$
