REMARK  4 active torsions:
REMARK  status: ('A' for Active; 'I' for Inactive)
REMARK    1  A    between atoms: C_2  and  C_4 
REMARK    2  A    between atoms: C_2  and  O_3 
REMARK    3  A    between atoms: C_8  and  C_12 
REMARK    4  A    between atoms: C_9  and  C_10 
ROOT
HETATM    1  C   UNK A   1      -3.613   0.276   0.311  1.00  0.00     0.112 C 
HETATM    2  N   UNK A   1      -2.981  -0.663   1.145  1.00  0.00    -0.359 N 
HETATM    3  C   UNK A   1      -2.934   1.337  -0.098  1.00  0.00     0.082 C 
HETATM    4  S   UNK A   1      -1.248   1.569   0.354  1.00  0.00    -0.123 SA
HETATM    5  C   UNK A   1      -0.474   0.187  -0.514  1.00  0.00     0.142 C 
HETATM    6  C   UNK A   1      -0.980  -1.124  -0.036  1.00  0.00     0.015 C 
HETATM    7  H   UNK A   1      -3.258  -0.720   2.073  1.00  0.00     0.165 HD
HETATM    8  C   UNK A   0      -2.010  -1.483   0.712  1.00  0.00     0.100 C 
ENDROOT
BRANCH   5   9
HETATM    9  C   UNK A   1       1.017   0.247  -0.300  1.00  0.00     0.075 A 
HETATM   10  C   UNK A   1       1.976   0.467  -1.288  1.00  0.00     0.058 A 
HETATM   11  C   UNK A   1       3.206   0.452  -0.691  1.00  0.00     0.043 A 
HETATM   12  N   UNK A   1       3.026   0.226   0.614  1.00  0.00    -0.264 N 
HETATM   13  C   UNK A   1       4.651   0.616  -1.151  1.00  0.00     0.134 C 
HETATM   14  N   UNK A   1       1.633   0.097   0.838  1.00  0.00    -0.175 NA
HETATM   15  C   UNK A   1       4.239   0.168   1.465  1.00  0.00     0.225 C 
HETATM   16  S   UNK A   1       5.596  -0.083   0.258  1.00  0.00    -0.141 SA
ENDBRANCH   5   9
BRANCH   6  17
HETATM   17  C   UNK A   1      -0.202  -2.207  -0.465  1.00  0.00     0.268 C 
HETATM   18  O   UNK A   1       0.776  -2.014  -1.160  1.00  0.00    -0.302 OA
ENDBRANCH   6  17
BRANCH   1  19
HETATM   19  C   UNK A   1      -4.957   0.086  -0.091  1.00  0.00     0.194 C 
HETATM   20  O   UNK A   1      -5.574  -0.891   0.290  1.00  0.00    -0.645 OA
BRANCH  19  21
HETATM   21  O   UNK A   1      -5.556   0.993  -0.892  1.00  0.00    -0.772 OA
HETATM   22  H   UNK A   1      -6.474   0.780  -1.109  1.00  0.00     0.167 HD
ENDBRANCH  19  21
ENDBRANCH   1  19
TORSDOF 4
