17O
  -OEChem-07282321083D

 31 33  0     1  0  0  0  0  0999 V2000
   -5.5740   -0.8910    0.2900 O   0  0  0  0  0  0  0  0  0  0  0  0
   -4.9570    0.0860   -0.0910 C   0  0  0  0  0  0  0  0  0  0  0  0
   -5.5560    0.9930   -0.8920 O   0  0  0  0  0  0  0  0  0  0  0  0
   -3.6130    0.2760    0.3110 C   0  0  0  0  0  0  0  0  0  0  0  0
   -2.9810   -0.6630    1.1450 N   0  0  0  0  0  0  0  0  0  0  0  0
   -2.0100   -1.4830    0.7120 C   0  0  0  0  0  0  0  0  0  0  0  0
   -2.9340    1.3370   -0.0980 C   0  0  0  0  0  0  0  0  0  0  0  0
   -1.2480    1.5690    0.3540 S   0  0  0  0  0  0  0  0  0  0  0  0
   -0.4740    0.1870   -0.5140 C   0  0  2  0  0  0  0  0  0  0  0  0
   -0.9800   -1.1240   -0.0360 C   0  0  0  0  0  0  0  0  0  0  0  0
   -0.2020   -2.2070   -0.4650 C   0  0  0  0  0  0  0  0  0  0  0  0
    0.7760   -2.0140   -1.1600 O   0  0  0  0  0  0  0  0  0  0  0  0
    1.0170    0.2470   -0.3000 C   0  0  0  0  0  0  0  0  0  0  0  0
    1.6330    0.0970    0.8380 N   0  0  0  0  0  0  0  0  0  0  0  0
    3.0260    0.2260    0.6140 N   0  0  0  0  0  0  0  0  0  0  0  0
    4.2390    0.1680    1.4650 C   0  0  0  0  0  0  0  0  0  0  0  0
    5.5960   -0.0830    0.2580 S   0  0  0  0  0  0  0  0  0  0  0  0
    4.6510    0.6160   -1.1510 C   0  0  0  0  0  0  0  0  0  0  0  0
    3.2060    0.4520   -0.6910 C   0  0  0  0  0  0  0  0  0  0  0  0
    1.9760    0.4670   -1.2880 C   0  0  0  0  0  0  0  0  0  0  0  0
   -6.4740    0.7800   -1.1090 H   0  0  0  0  0  0  0  0  0  0  0  0
   -3.2580   -0.7200    2.0730 H   0  0  0  0  0  0  0  0  0  0  0  0
   -3.4220    2.0720   -0.7200 H   0  0  0  0  0  0  0  0  0  0  0  0
   -0.6820    0.2770   -1.5800 H   0  0  0  0  0  0  0  0  0  0  0  0
   -0.4710   -3.2120   -0.1790 H   0  0  0  0  0  0  0  0  0  0  0  0
    4.3730    1.1050    2.0050 H   0  0  0  0  0  0  0  0  0  0  0  0
    4.8940    1.6680   -1.2960 H   0  0  0  0  0  0  0  0  0  0  0  0
    4.8370    0.0470   -2.0620 H   0  0  0  0  0  0  0  0  0  0  0  0
    1.7820    0.6240   -2.3380 H   0  0  0  0  0  0  0  0  0  0  0  0
    4.1810   -0.6710    2.1580 H   0  0  0  0  0  0  0  0  0  0  0  0
   -2.0760   -2.5220    0.9980 H   0  0  0  0  0  0  0  0  0  0  0  0
  1  2  2  0  0  0  0
  2  4  1  0  0  0  0
  2  3  1  0  0  0  0
  3 21  1  0  0  0  0
  4  7  2  0  0  0  0
  4  5  1  0  0  0  0
  5  6  1  0  0  0  0
  5 22  1  0  0  0  0
  6 10  2  0  0  0  0
  7  8  1  0  0  0  0
  7 23  1  0  0  0  0
  8  9  1  0  0  0  0
  9 10  1  0  0  0  0
  9 13  1  0  0  0  0
  9 24  1  0  0  0  0
 10 11  1  0  0  0  0
 11 12  2  0  0  0  0
 11 25  1  0  0  0  0
 13 20  1  0  0  0  0
 14 15  1  0  0  0  0
 13 14  2  0  0  0  0
 15 19  1  0  0  0  0
 15 16  1  0  0  0  0
 16 17  1  0  0  0  0
 16 26  1  0  0  0  0
 16 30  1  0  0  0  0
 17 18  1  0  0  0  0
 18 27  1  0  0  0  0
 18 28  1  0  0  0  0
 19 20  2  0  0  0  0
 18 19  1  0  0  0  0
 20 29  1  0  0  0  0
  6 31  1  0  0  0  0
M  END
> <OPENEYE_ISO_SMILES>
c1c2n(nc1[C@H]3C(=CNC(=CS3)C(=O)O)C=O)CSC2

> <OPENEYE_INCHI>
InChI=1S/C12H11N3O3S2/c16-3-7-2-13-10(12(17)18)5-20-11(7)9-1-8-4-19-6-15(8)14-9/h1-3,5,11,13H,4,6H2,(H,17,18)/t11-/m1/s1

> <OPENEYE_INCHIKEY>
BBUNPRSRYKGFTQ-LLVKDONJSA-N

> <FORMULA>
C12H11N3O3S2

$$$$
