1OG
  -OEChem-07282321083D

 48 48  0     1  0  0  0  0  0999 V2000
   -5.3420    1.1680    0.6750 C   0  0  0  0  0  0  0  0  0  0  0  0
   -5.3250    0.0190   -0.3340 C   0  0  0  0  0  0  0  0  0  0  0  0
   -5.6410   -1.2950    0.3830 C   0  0  0  0  0  0  0  0  0  0  0  0
   -6.3750    0.2750   -1.4170 C   0  0  0  0  0  0  0  0  0  0  0  0
   -4.0100   -0.0680   -0.9460 O   0  0  0  0  0  0  0  0  0  0  0  0
   -2.9710   -0.2920   -0.1270 C   0  0  0  0  0  0  0  0  0  0  0  0
   -3.1530   -0.4110    1.0620 O   0  0  0  0  0  0  0  0  0  0  0  0
   -1.5770   -0.3940   -0.6900 C   0  0  1  0  0  0  0  0  0  0  0  0
   -0.9850    1.0000   -0.8250 C   0  0  2  0  0  0  0  0  0  0  0  0
    0.3590    0.9270   -1.5020 C   0  0  0  0  0  0  0  0  0  0  0  0
    1.0630    1.9070   -1.5540 O   0  0  0  0  0  0  0  0  0  0  0  0
   -0.8300    1.5380    0.5820 C   0  0  0  0  0  0  0  0  0  0  0  0
    0.3010    1.4700    1.1900 N   0  0  0  0  0  0  0  0  0  0  0  0
    1.4360    1.0210    0.6280 C   0  0  0  0  0  0  0  0  0  0  0  0
    2.5630    1.9600    0.7960 C   0  0  0  0  0  0  0  0  0  0  0  0
    2.7960    2.9060   -0.1350 O   0  0  0  0  0  0  0  0  0  0  0  0
    3.2800    1.8800    1.7740 O   0  0  0  0  0  0  0  0  0  0  0  0
    1.7660   -0.0350   -0.0200 C   0  0  0  0  0  0  0  0  0  0  0  0
    1.0710   -1.3110   -0.3900 C   0  0  0  0  0  0  0  0  0  0  0  0
   -0.5560   -1.4080    0.4160 S   0  0  0  0  0  0  0  0  0  0  0  0
   -1.0140   -2.7520    0.3510 O   0  0  0  0  0  0  0  0  0  0  0  0
   -0.4760   -0.7620    1.6790 O   0  0  0  0  0  0  0  0  0  0  0  0
    3.1840    0.0200   -0.5300 C   0  0  0  0  0  0  0  0  0  0  0  0
    3.9290   -1.1130   -0.0100 O   0  0  0  0  0  0  0  0  0  0  0  0
    5.1870   -1.2690   -0.4510 C   0  0  0  0  0  0  0  0  0  0  0  0
    6.0210   -2.4220    0.0440 C   0  0  0  0  0  0  0  0  0  0  0  0
    5.6500   -0.4860   -1.2450 O   0  0  0  0  0  0  0  0  0  0  0  0
   -5.1160    2.1040    0.1640 H   0  0  0  0  0  0  0  0  0  0  0  0
   -6.3280    1.2340    1.1350 H   0  0  0  0  0  0  0  0  0  0  0  0
   -4.5940    0.9860    1.4470 H   0  0  0  0  0  0  0  0  0  0  0  0
   -6.6280   -1.2300    0.8420 H   0  0  0  0  0  0  0  0  0  0  0  0
   -5.6290   -2.1140   -0.3360 H   0  0  0  0  0  0  0  0  0  0  0  0
   -4.8930   -1.4780    1.1540 H   0  0  0  0  0  0  0  0  0  0  0  0
   -6.1490    1.2110   -1.9280 H   0  0  0  0  0  0  0  0  0  0  0  0
   -6.3630   -0.5440   -2.1360 H   0  0  0  0  0  0  0  0  0  0  0  0
   -7.3610    0.3400   -0.9580 H   0  0  0  0  0  0  0  0  0  0  0  0
   -1.6180   -0.8660   -1.6720 H   0  0  0  0  0  0  0  0  0  0  0  0
   -1.6580    1.6370   -1.3990 H   0  0  0  0  0  0  0  0  0  0  0  0
    0.6930   -0.0020   -1.9410 H   0  0  0  0  0  0  0  0  0  0  0  0
   -1.6780    1.9850    1.0790 H   0  0  0  0  0  0  0  0  0  0  0  0
    3.5450    3.4970    0.0190 H   0  0  0  0  0  0  0  0  0  0  0  0
    0.9390   -1.3490   -1.4710 H   0  0  0  0  0  0  0  0  0  0  0  0
    1.6810   -2.1570   -0.0730 H   0  0  0  0  0  0  0  0  0  0  0  0
    3.1800   -0.0170   -1.6190 H   0  0  0  0  0  0  0  0  0  0  0  0
    5.4390   -3.0160    0.7490 H   0  0  0  0  0  0  0  0  0  0  0  0
    6.3160   -3.0460   -0.7990 H   0  0  0  0  0  0  0  0  0  0  0  0
    6.9120   -2.0390    0.5420 H   0  0  0  0  0  0  0  0  0  0  0  0
    3.6530    0.9460   -0.1990 H   0  0  0  0  0  0  0  0  0  0  0  0
 25 27  2  0  0  0  0
 25 26  1  0  0  0  0
 24 25  1  0  0  0  0
 23 24  1  0  0  0  0
 18 23  1  0  0  0  0
 15 17  2  0  0  0  0
 18 19  1  0  0  0  0
 14 18  2  0  0  0  0
 19 20  1  0  0  0  0
 14 15  1  0  0  0  0
 15 16  1  0  0  0  0
 13 14  1  0  0  0  0
 20 22  2  0  0  0  0
  1  2  1  0  0  0  0
 12 13  2  0  0  0  0
  2  3  1  0  0  0  0
 20 21  2  0  0  0  0
  8 20  1  0  0  0  0
  2  5  1  0  0  0  0
  2  4  1  0  0  0  0
  5  6  1  0  0  0  0
  9 12  1  0  0  0  0
  6  8  1  0  0  0  0
  6  7  2  0  0  0  0
  8  9  1  0  0  0  0
  9 10  1  0  0  0  0
 10 11  2  0  0  0  0
  1 28  1  0  0  0  0
  1 29  1  0  0  0  0
  1 30  1  0  0  0  0
  3 31  1  0  0  0  0
  3 32  1  0  0  0  0
  3 33  1  0  0  0  0
  4 34  1  0  0  0  0
  4 35  1  0  0  0  0
  4 36  1  0  0  0  0
  8 37  1  0  0  0  0
  9 38  1  0  0  0  0
 10 39  1  0  0  0  0
 12 40  1  0  0  0  0
 16 41  1  0  0  0  0
 19 42  1  0  0  0  0
 19 43  1  0  0  0  0
 23 44  1  0  0  0  0
 26 45  1  0  0  0  0
 26 46  1  0  0  0  0
 26 47  1  0  0  0  0
 23 48  1  0  0  0  0
M  END
> <OPENEYE_ISO_SMILES>
CC(=O)OC/C/1=C(/N=C\[C@H]([C@@H](S(=O)(=O)C1)C(=O)OC(C)(C)C)C=O)\C(=O)O

> <OPENEYE_INCHI>
InChI=1S/C16H21NO9S/c1-9(19)25-7-11-8-27(23,24)13(15(22)26-16(2,3)4)10(6-18)5-17-12(11)14(20)21/h5-6,10,13H,7-8H2,1-4H3,(H,20,21)/b12-11-,17-5-/t10-,13+/m0/s1

> <OPENEYE_INCHIKEY>
YIHDWMIOGFYWHU-GNOJNHLBSA-N

> <FORMULA>
C16H21NO9S

$$$$
