1RG
  -OEChem-07282321083D

 60 62  0     1  0  0  0  0  0999 V2000
   -3.3420    0.4270    0.6870 C   0  0  0  0  0  0  0  0  0  0  0  0
   -1.2880   -0.6110    1.5330 N   0  0  0  0  0  0  0  0  0  0  0  0
   -3.7300   -0.6950    0.4370 O   0  0  0  0  0  0  0  0  0  0  0  0
   -1.9060    0.6550    1.0870 C   0  0  1  0  0  0  0  0  0  0  0  0
   -1.0690    1.0930   -0.1410 C   0  0  0  0  0  0  0  0  0  0  0  0
    0.1130   -0.6370    1.0750 C   0  0  0  0  0  0  0  0  0  0  0  0
    0.3600    0.6670    0.2870 C   0  0  1  0  0  0  0  0  0  0  0  0
    6.2670    0.8790   -1.1260 C   0  0  0  0  0  0  0  0  0  0  0  0
    6.2270    0.9880    0.3770 C   0  0  1  0  0  0  0  0  0  0  0  0
    6.3980    1.8730   -1.7990 O   0  0  0  0  0  0  0  0  0  0  0  0
    4.9740    0.2870    0.9060 C   0  0  1  0  0  0  0  0  0  0  0  0
    7.4710    0.3220    0.9700 C   0  0  1  0  0  0  0  0  0  0  0  0
    7.4310    0.4320    2.4950 C   0  0  0  0  0  0  0  0  0  0  0  0
    7.5000   -1.0560    0.5920 O   0  0  0  0  0  0  0  0  0  0  0  0
    3.7090    1.0460    0.4650 C   0  0  2  0  0  0  0  0  0  0  0  0
    2.9430    0.0510   -0.3760 C   0  0  0  0  0  0  0  0  0  0  0  0
    4.8380   -1.0440    0.3010 N   0  0  0  0  0  0  0  0  0  0  0  0
    1.3960    0.3510   -1.1630 S   0  0  0  0  0  0  0  0  0  0  0  0
    3.6360   -1.1020   -0.4250 C   0  0  0  0  0  0  0  0  0  0  0  0
    3.2010   -2.2480   -1.1300 C   0  0  0  0  0  0  0  0  0  0  0  0
    4.0860    2.2720   -0.3700 C   0  0  0  0  0  0  0  0  0  0  0  0
    2.1970   -2.1970   -1.8150 O   0  0  0  0  0  0  0  0  0  0  0  0
    3.9010   -3.4000   -1.0440 O   0  0  0  0  0  0  0  0  0  0  0  0
   -4.1920    1.4690    0.6040 N   0  0  0  0  0  0  0  0  0  0  0  0
   -5.4940    1.2730    0.1290 C   0  0  0  0  0  0  0  0  0  0  0  0
   -6.1680    0.0980    0.4200 C   0  0  0  0  0  0  0  0  0  0  0  0
   -7.4660   -0.0920   -0.0550 C   0  0  0  0  0  0  0  0  0  0  0  0
   -8.0770    0.9040   -0.8210 C   0  0  0  0  0  0  0  0  0  0  0  0
   -7.3960    2.0700   -1.1060 C   0  0  0  0  0  0  0  0  0  0  0  0
   -6.1120    2.2600   -0.6300 C   0  0  0  0  0  0  0  0  0  0  0  0
   -8.1930   -1.3420    0.2500 C   0  0  0  0  0  0  0  0  0  0  0  0
   -9.4460   -1.5230   -0.2100 O   0  0  0  0  0  0  0  0  0  0  0  0
   -7.6590   -2.2060    0.9170 O   0  0  0  0  0  0  0  0  0  0  0  0
   -1.3420   -0.7050    2.5370 H   0  0  0  0  0  0  0  0  0  0  0  0
   -1.8480    1.4060    1.8750 H   0  0  0  0  0  0  0  0  0  0  0  0
   -1.3830    0.5600   -1.0380 H   0  0  0  0  0  0  0  0  0  0  0  0
   -1.1260    2.1710   -0.2880 H   0  0  0  0  0  0  0  0  0  0  0  0
    0.7830   -0.6850    1.9340 H   0  0  0  0  0  0  0  0  0  0  0  0
    0.2750   -1.4980    0.4270 H   0  0  0  0  0  0  0  0  0  0  0  0
    0.8130    1.4240    0.9280 H   0  0  0  0  0  0  0  0  0  0  0  0
    6.1790   -0.0870   -1.6000 H   0  0  0  0  0  0  0  0  0  0  0  0
    6.2050    2.0390    0.6650 H   0  0  0  0  0  0  0  0  0  0  0  0
    5.0120    0.2110    1.9920 H   0  0  0  0  0  0  0  0  0  0  0  0
    8.3640    0.8210    0.5930 H   0  0  0  0  0  0  0  0  0  0  0  0
    8.3170   -0.0420    2.9170 H   0  0  0  0  0  0  0  0  0  0  0  0
    7.4090    1.4830    2.7830 H   0  0  0  0  0  0  0  0  0  0  0  0
    6.5380   -0.0670    2.8720 H   0  0  0  0  0  0  0  0  0  0  0  0
    8.2640   -1.5410    0.9330 H   0  0  0  0  0  0  0  0  0  0  0  0
    3.1220    1.3430    1.3340 H   0  0  0  0  0  0  0  0  0  0  0  0
    5.4760   -1.7690    0.3880 H   0  0  0  0  0  0  0  0  0  0  0  0
    4.4800    1.9490   -1.3330 H   0  0  0  0  0  0  0  0  0  0  0  0
    3.2020    2.8900   -0.5270 H   0  0  0  0  0  0  0  0  0  0  0  0
    4.8440    2.8510    0.1570 H   0  0  0  0  0  0  0  0  0  0  0  0
   -3.9020    2.3550    0.8720 H   0  0  0  0  0  0  0  0  0  0  0  0
   -5.6910   -0.6680    1.0130 H   0  0  0  0  0  0  0  0  0  0  0  0
   -9.0810    0.7600   -1.1920 H   0  0  0  0  0  0  0  0  0  0  0  0
   -7.8700    2.8390   -1.6990 H   0  0  0  0  0  0  0  0  0  0  0  0
   -5.5870    3.1770   -0.8520 H   0  0  0  0  0  0  0  0  0  0  0  0
    3.5270   -4.1270   -1.5600 H   0  0  0  0  0  0  0  0  0  0  0  0
   -9.8800   -2.3560    0.0160 H   0  0  0  0  0  0  0  0  0  0  0  0
  1  3  2  0  0  0  0
  1  4  1  0  0  0  0
  1 24  1  0  0  0  0
  2  4  1  0  0  0  0
  2  6  1  0  0  0  0
  4  5  1  0  0  0  0
  5  7  1  0  0  0  0
  6  7  1  0  0  0  0
  7 18  1  0  0  0  0
  8  9  1  0  0  0  0
  8 10  2  0  0  0  0
  9 11  1  0  0  0  0
  9 12  1  0  0  0  0
 11 15  1  0  0  0  0
 11 17  1  0  0  0  0
 12 13  1  0  0  0  0
 12 14  1  0  0  0  0
 15 16  1  0  0  0  0
 15 21  1  0  0  0  0
 16 18  1  0  0  0  0
 16 19  2  0  0  0  0
 17 19  1  0  0  0  0
 19 20  1  0  0  0  0
 20 22  2  0  0  0  0
 20 23  1  0  0  0  0
 24 25  1  0  0  0  0
 25 26  2  0  0  0  0
 25 30  1  0  0  0  0
 26 27  1  0  0  0  0
 27 28  2  0  0  0  0
 27 31  1  0  0  0  0
 28 29  1  0  0  0  0
 29 30  2  0  0  0  0
 31 32  1  0  0  0  0
 31 33  2  0  0  0  0
  2 34  1  0  0  0  0
  4 35  1  0  0  0  0
  5 36  1  0  0  0  0
  5 37  1  0  0  0  0
  6 38  1  0  0  0  0
  6 39  1  0  0  0  0
  7 40  1  0  0  0  0
  8 41  1  0  0  0  0
  9 42  1  0  0  0  0
 11 43  1  0  0  0  0
 12 44  1  0  0  0  0
 13 45  1  0  0  0  0
 13 46  1  0  0  0  0
 13 47  1  0  0  0  0
 14 48  1  0  0  0  0
 15 49  1  0  0  0  0
 17 50  1  0  0  0  0
 21 51  1  0  0  0  0
 21 52  1  0  0  0  0
 21 53  1  0  0  0  0
 24 54  1  0  0  0  0
 26 55  1  0  0  0  0
 28 56  1  0  0  0  0
 29 57  1  0  0  0  0
 30 58  1  0  0  0  0
 23 59  1  0  0  0  0
 32 60  1  0  0  0  0
M  END
> <OPENEYE_ISO_SMILES>
C[C@@H]1[C@@H](NC(=C1S[C@H]2C[C@H](NC2)C(=O)Nc3cccc(c3)C(=O)O)C(=O)O)[C@H](C=O)[C@@H](C)O

> <OPENEYE_INCHI>
InChI=1S/C22H27N3O7S/c1-10-17(15(9-26)11(2)27)25-18(22(31)32)19(10)33-14-7-16(23-8-14)20(28)24-13-5-3-4-12(6-13)21(29)30/h3-6,9-11,14-17,23,25,27H,7-8H2,1-2H3,(H,24,28)(H,29,30)(H,31,32)/t10-,11-,14+,15-,16+,17-/m1/s1

> <OPENEYE_INCHIKEY>
PGRRQYXTRXQDDJ-SKHPLXCOSA-N

> <FORMULA>
C22H27N3O7S

$$$$
