REMARK  7 active torsions:
REMARK  status: ('A' for Active; 'I' for Inactive)
REMARK    1  A    between atoms: C_1  and  CA_3 
REMARK       I    between atoms: N_2  and  C_21 
REMARK    2  A    between atoms: N_2  and  CA_3 
REMARK    3  A    between atoms: CA_3  and  C_4 
REMARK    4  A    between atoms: OXT_10  and  C_20 
REMARK    5  A    between atoms: C_20  and  CA_26 
REMARK    6  A    between atoms: C_21  and  C_25 
REMARK    7  A    between atoms: C_23  and  C_24 
ROOT
HETATM    1  N   UNL     1      -0.490  -0.904  -0.345  1.00  0.00    -0.343 N 
HETATM    2  O   UNL     1      -1.854  -1.091  -2.089  1.00  0.00    -0.267 OA
HETATM    3  C   UNL     1      -1.719  -1.038  -0.881  1.00  0.00     0.257 C 
HETATM    4  H   UNL     1      -0.383  -0.862   0.618  1.00  0.00     0.163 HD
ENDROOT
BRANCH   1   5
HETATM    5  CA  UNL     1       0.684  -0.823  -1.217  1.00  0.00     0.189 C 
BRANCH   5   6
HETATM    6  C   UNL     1       1.146  -2.213  -1.569  1.00  0.00     0.259 C 
HETATM    7  O   UNL     1       0.556  -3.173  -1.135  1.00  0.00    -0.305 OA
ENDBRANCH   5   6
BRANCH   5   8
HETATM    8  C   UNL     1       1.808  -0.080  -0.491  1.00  0.00     0.312 C 
HETATM    9  S   UNL     1       2.315  -0.973   1.037  1.00  0.00    -0.119 SA
HETATM   10  C   UNL     1       4.036  -0.333   1.028  1.00  0.00     0.044 C 
HETATM   11  C   UNL     1       5.029  -1.450   1.355  1.00  0.00     0.029 C 
HETATM   12  C   UNL     1       4.185   0.827   2.015  1.00  0.00     0.029 C 
HETATM   13  CA  UNL     1       4.230   0.159  -0.419  1.00  0.00     0.336 C 
HETATM   14  N   UNL     1       3.074  -0.122  -1.275  1.00  0.00     0.116 N 
HETATM   15  H   UNL     1       3.179  -1.009  -1.745  1.00  0.00     0.318 HD
BRANCH  13  16
HETATM   16  C   UNL     1       4.470   1.647  -0.399  1.00  0.00     0.175 C 
HETATM   17  O   UNL     1       3.591   2.405  -0.736  1.00  0.00    -0.648 OA
BRANCH  16  18
HETATM   18  OXT UNL     1       5.659   2.130  -0.007  1.00  0.00    -0.775 OA
HETATM   19  HXT UNL     1       5.766   3.091  -0.011  1.00  0.00     0.167 HD
ENDBRANCH  16  18
ENDBRANCH  13  16
ENDBRANCH   5   8
ENDBRANCH   1   5
BRANCH   3  20
HETATM   20  C   UNL     1      -2.900  -1.120  -0.005  1.00  0.00     0.095 A 
HETATM   21  C   UNL     1      -3.486  -2.234   0.540  1.00  0.00     0.093 A 
HETATM   22  C   UNL     1      -3.042  -3.664   0.361  1.00  0.00     0.080 C 
HETATM   23  O   UNL     1      -4.524  -1.805   1.260  1.00  0.00    -0.217 OA
HETATM   24  N   UNL     1      -4.661  -0.607   1.237  1.00  0.00    -0.127 NA
HETATM   25  C   UNL     1      -3.747  -0.021   0.505  1.00  0.00     0.113 A 
BRANCH  25  26
HETATM   26  C   UNL     1      -3.595   1.431   0.244  1.00  0.00    -0.004 A 
HETATM   27  C   UNL     1      -2.324   1.992   0.129  1.00  0.00     0.014 A 
HETATM   28  C   UNL     1      -2.189   3.344  -0.109  1.00  0.00     0.001 A 
HETATM   29  C   UNL     1      -3.311   4.143  -0.235  1.00  0.00     0.000 A 
HETATM   30  C   UNL     1      -4.575   3.593  -0.116  1.00  0.00     0.001 A 
HETATM   31  C   UNL     1      -4.722   2.243   0.128  1.00  0.00     0.014 A 
ENDBRANCH  25  26
ENDBRANCH   3  20
TORSDOF 7
