1S6
  -OEChem-07282321083D

 49 51  0     1  0  0  0  0  0999 V2000
    1.1460   -2.2130   -1.5690 C   0  0  0  0  0  0  0  0  0  0  0  0
   -0.4900   -0.9040   -0.3450 N   0  0  0  0  0  0  0  0  0  0  0  0
    0.6840   -0.8230   -1.2170 C   0  0  1  0  0  0  0  0  0  0  0  0
    1.8080   -0.0800   -0.4910 C   0  0  2  0  0  0  0  0  0  0  0  0
   -3.0420   -3.6640    0.3610 C   0  0  0  0  0  0  0  0  0  0  0  0
    5.0290   -1.4500    1.3550 C   0  0  0  0  0  0  0  0  0  0  0  0
    4.1850    0.8270    2.0150 C   0  0  0  0  0  0  0  0  0  0  0  0
    3.5910    2.4050   -0.7360 O   0  0  0  0  0  0  0  0  0  0  0  0
   -1.8540   -1.0910   -2.0890 O   0  0  0  0  0  0  0  0  0  0  0  0
    5.6590    2.1300   -0.0070 O   0  0  0  0  0  0  0  0  0  0  0  0
   -3.3110    4.1430   -0.2350 C   0  0  0  0  0  0  0  0  0  0  0  0
   -2.1890    3.3440   -0.1090 C   0  0  0  0  0  0  0  0  0  0  0  0
   -4.5750    3.5930   -0.1160 C   0  0  0  0  0  0  0  0  0  0  0  0
   -2.3240    1.9920    0.1290 C   0  0  0  0  0  0  0  0  0  0  0  0
   -4.7220    2.2430    0.1280 C   0  0  0  0  0  0  0  0  0  0  0  0
   -4.6610   -0.6070    1.2370 N   0  0  0  0  0  0  0  0  0  0  0  0
    3.0740   -0.1220   -1.2750 N   0  0  0  0  0  0  0  0  0  0  0  0
   -4.5240   -1.8050    1.2600 O   0  0  0  0  0  0  0  0  0  0  0  0
    2.3150   -0.9730    1.0370 S   0  0  0  0  0  0  0  0  0  0  0  0
    4.4700    1.6470   -0.3990 C   0  0  0  0  0  0  0  0  0  0  0  0
   -1.7190   -1.0380   -0.8810 C   0  0  0  0  0  0  0  0  0  0  0  0
   -3.4860   -2.2340    0.5400 C   0  0  0  0  0  0  0  0  0  0  0  0
   -3.5950    1.4310    0.2440 C   0  0  0  0  0  0  0  0  0  0  0  0
   -3.7470   -0.0210    0.5050 C   0  0  0  0  0  0  0  0  0  0  0  0
   -2.9000   -1.1200   -0.0050 C   0  0  0  0  0  0  0  0  0  0  0  0
    4.2300    0.1590   -0.4190 C   0  0  1  0  0  0  0  0  0  0  0  0
    4.0360   -0.3330    1.0280 C   0  0  0  0  0  0  0  0  0  0  0  0
    0.5560   -3.1730   -1.1350 O   0  0  0  0  0  0  0  0  0  0  0  0
    2.0030   -2.3510   -2.2110 H   0  0  0  0  0  0  0  0  0  0  0  0
   -0.3830   -0.8620    0.6180 H   0  0  0  0  0  0  0  0  0  0  0  0
    0.4230   -0.2850   -2.1290 H   0  0  0  0  0  0  0  0  0  0  0  0
    1.5170    0.9470   -0.2680 H   0  0  0  0  0  0  0  0  0  0  0  0
   -3.7080   -4.3230    0.9180 H   0  0  0  0  0  0  0  0  0  0  0  0
   -3.0750   -3.9240   -0.6970 H   0  0  0  0  0  0  0  0  0  0  0  0
   -2.0240   -3.7770    0.7330 H   0  0  0  0  0  0  0  0  0  0  0  0
    4.9250   -2.2530    0.6250 H   0  0  0  0  0  0  0  0  0  0  0  0
    6.0450   -1.0560    1.3190 H   0  0  0  0  0  0  0  0  0  0  0  0
    4.8240   -1.8380    2.3530 H   0  0  0  0  0  0  0  0  0  0  0  0
    3.9670    0.4760    3.0240 H   0  0  0  0  0  0  0  0  0  0  0  0
    5.2050    1.2090    1.9760 H   0  0  0  0  0  0  0  0  0  0  0  0
    3.4880    1.6220    1.7490 H   0  0  0  0  0  0  0  0  0  0  0  0
    5.7660    3.0910   -0.0110 H   0  0  0  0  0  0  0  0  0  0  0  0
   -3.2000    5.2010   -0.4220 H   0  0  0  0  0  0  0  0  0  0  0  0
   -1.2040    3.7800   -0.1990 H   0  0  0  0  0  0  0  0  0  0  0  0
   -5.4470    4.2210   -0.2140 H   0  0  0  0  0  0  0  0  0  0  0  0
   -1.4470    1.3690    0.2260 H   0  0  0  0  0  0  0  0  0  0  0  0
   -5.7090    1.8140    0.2160 H   0  0  0  0  0  0  0  0  0  0  0  0
    3.1790   -1.0090   -1.7450 H   0  0  0  0  0  0  0  0  0  0  0  0
    5.1070   -0.3320   -0.8400 H   0  0  0  0  0  0  0  0  0  0  0  0
  5 22  1  0  0  0  0
 18 22  1  0  0  0  0
 16 18  1  0  0  0  0
 22 25  2  0  0  0  0
 16 24  2  0  0  0  0
  9 21  2  0  0  0  0
 21 25  1  0  0  0  0
 24 25  1  0  0  0  0
  2 21  1  0  0  0  0
 23 24  1  0  0  0  0
 15 23  2  0  0  0  0
 13 15  1  0  0  0  0
  2  3  1  0  0  0  0
 14 23  1  0  0  0  0
  1  3  1  0  0  0  0
  3  4  1  0  0  0  0
 11 13  2  0  0  0  0
  1 28  2  0  0  0  0
 12 14  2  0  0  0  0
  4 19  1  0  0  0  0
  4 17  1  0  0  0  0
 19 27  1  0  0  0  0
 11 12  1  0  0  0  0
 17 26  1  0  0  0  0
 26 27  1  0  0  0  0
  6 27  1  0  0  0  0
  7 27  1  0  0  0  0
 20 26  1  0  0  0  0
  8 20  2  0  0  0  0
 10 20  1  0  0  0  0
  1 29  1  0  0  0  0
  2 30  1  0  0  0  0
  3 31  1  0  0  0  0
  4 32  1  0  0  0  0
  5 33  1  0  0  0  0
  5 34  1  0  0  0  0
  5 35  1  0  0  0  0
  6 36  1  0  0  0  0
  6 37  1  0  0  0  0
  6 38  1  0  0  0  0
  7 39  1  0  0  0  0
  7 40  1  0  0  0  0
  7 41  1  0  0  0  0
 10 42  1  0  0  0  0
 11 43  1  0  0  0  0
 12 44  1  0  0  0  0
 13 45  1  0  0  0  0
 14 46  1  0  0  0  0
 15 47  1  0  0  0  0
 17 48  1  0  0  0  0
 26 49  1  0  0  0  0
M  END
> <OPENEYE_ISO_SMILES>
Cc1c(c(no1)c2ccccc2)C(=O)N[C@H](C=O)[C@@H]3N[C@H](C(S3)(C)C)C(=O)O

> <OPENEYE_INCHI>
InChI=1S/C19H21N3O5S/c1-10-13(14(22-27-10)11-7-5-4-6-8-11)16(24)20-12(9-23)17-21-15(18(25)26)19(2,3)28-17/h4-9,12,15,17,21H,1-3H3,(H,20,24)(H,25,26)/t12-,15+,17-/m1/s1

> <OPENEYE_INCHIKEY>
QXXMSXCGXIRLPM-ISTRZQFTSA-N

> <FORMULA>
C19H21N3O5S

$$$$
