REMARK  8 active torsions:
REMARK  status: ('A' for Active; 'I' for Inactive)
REMARK    1  A    between atoms: N_2  and  C_5 
REMARK       I    between atoms: N_2  and  C_8 
REMARK    2  A    between atoms: O_3  and  C_5 
REMARK    3  A    between atoms: C_5  and  C_18 
REMARK    4  A    between atoms: C_5  and  C_23 
REMARK    5  A    between atoms: C_8  and  C_10 
REMARK    6  A    between atoms: C_10  and  C_11 
REMARK    7  A    between atoms: OXT_16  and  C_24 
REMARK    8  A    between atoms: CA_22  and  C_24 
ROOT
HETATM    1  C   UNL     1       0.515  -1.639  -0.398  1.00  0.00     0.222 C 
ENDROOT
BRANCH   1   2
HETATM    2  N   UNL     1      -0.527  -0.958  -1.170  1.00  0.00    -0.321 N 
HETATM    3  C   UNL     1      -1.561  -0.371  -0.535  1.00  0.00     0.225 C 
HETATM    4  O   UNL     1      -1.628  -0.407   0.676  1.00  0.00    -0.273 OA
HETATM    5  H   UNL     1      -0.474  -0.930  -2.138  1.00  0.00     0.166 HD
BRANCH   3   6
HETATM    6  C   UNL     1      -2.634   0.329  -1.328  1.00  0.00     0.148 C 
BRANCH   6   7
HETATM    7  C   UNL     1      -3.665   0.896  -0.387  1.00  0.00    -0.009 A 
HETATM    8  S   UNL     1      -5.104   0.050   0.168  1.00  0.00    -0.106 SA
HETATM    9  C   UNL     1      -5.588   1.442   1.128  1.00  0.00     0.050 A 
HETATM   10  C   UNL     1      -4.689   2.417   0.987  1.00  0.00     0.008 A 
HETATM   11  C   UNL     1      -3.628   2.115   0.151  1.00  0.00     0.015 A 
ENDBRANCH   6   7
ENDBRANCH   3   6
ENDBRANCH   1   2
BRANCH   1  12
HETATM   12  O   UNL     1       1.494  -2.177  -1.290  1.00  0.00    -0.357 OA
HETATM   13  C   UNL     1       0.975  -3.139  -2.210  1.00  0.00     0.205 C 
ENDBRANCH   1  12
BRANCH   1  14
HETATM   14  C   UNL     1       1.183  -0.641   0.549  1.00  0.00     0.233 C 
HETATM   15  S   UNL     1       2.535  -1.467   1.438  1.00  0.00    -0.132 SA
HETATM   16  C   UNL     1       3.402  -0.044   2.179  1.00  0.00     0.116 C 
HETATM   17  C   UNL     1       3.756   0.892   1.041  1.00  0.00    -0.023 C 
HETATM   18  C   UNL     1       4.947   1.480   1.000  1.00  0.00     0.022 C 
HETATM   19  CA  UNL     1       2.769   1.141  -0.018  1.00  0.00     0.132 C 
HETATM   20  N   UNL     1       1.695   0.483  -0.219  1.00  0.00    -0.261 NA
BRANCH  19  21
HETATM   21  C   UNL     1       3.048   2.270  -0.945  1.00  0.00     0.195 C 
HETATM   22  O   UNL     1       3.983   3.014  -0.730  1.00  0.00    -0.645 OA
BRANCH  21  23
HETATM   23  OXT UNL     1       2.265   2.466  -2.022  1.00  0.00    -0.772 OA
HETATM   24  HXT UNL     1       2.486   3.213  -2.595  1.00  0.00     0.167 HD
ENDBRANCH  21  23
ENDBRANCH  19  21
ENDBRANCH   1  14
BRANCH   1  25
HETATM   25  C   UNL     1      -0.101  -2.757   0.403  1.00  0.00     0.295 C 
HETATM   26  O   UNL     1      -1.289  -2.963   0.336  1.00  0.00    -0.302 OA
ENDBRANCH   1  25
TORSDOF 8
