1S7
  -OEChem-07282321083D

 40 41  0     1  0  0  0  0  0999 V2000
    0.9750   -3.1390   -2.2100 C   0  0  0  0  0  0  0  0  0  0  0  0
   -0.5270   -0.9580   -1.1700 N   0  0  0  0  0  0  0  0  0  0  0  0
    1.4940   -2.1770   -1.2900 O   0  0  0  0  0  0  0  0  0  0  0  0
   -5.1040    0.0500    0.1680 S   0  0  0  0  0  0  0  0  0  0  0  0
    0.5150   -1.6390   -0.3980 C   0  0  1  0  0  0  0  0  0  0  0  0
   -1.6280   -0.4070    0.6760 O   0  0  0  0  0  0  0  0  0  0  0  0
    2.5350   -1.4670    1.4380 S   0  0  0  0  0  0  0  0  0  0  0  0
   -1.5610   -0.3710   -0.5350 C   0  0  0  0  0  0  0  0  0  0  0  0
    1.6950    0.4830   -0.2190 N   0  0  0  0  0  0  0  0  0  0  0  0
   -2.6340    0.3290   -1.3280 C   0  0  0  0  0  0  0  0  0  0  0  0
   -3.6650    0.8960   -0.3870 C   0  0  0  0  0  0  0  0  0  0  0  0
   -1.2890   -2.9630    0.3360 O   0  0  0  0  0  0  0  0  0  0  0  0
   -3.6280    2.1150    0.1510 C   0  0  0  0  0  0  0  0  0  0  0  0
    3.9830    3.0140   -0.7300 O   0  0  0  0  0  0  0  0  0  0  0  0
   -4.6890    2.4170    0.9870 C   0  0  0  0  0  0  0  0  0  0  0  0
    2.2650    2.4660   -2.0220 O   0  0  0  0  0  0  0  0  0  0  0  0
   -5.5880    1.4420    1.1280 C   0  0  0  0  0  0  0  0  0  0  0  0
    1.1830   -0.6410    0.5490 C   0  0  1  0  0  0  0  0  0  0  0  0
    3.4020   -0.0440    2.1790 C   0  0  0  0  0  0  0  0  0  0  0  0
    3.7560    0.8920    1.0410 C   0  0  0  0  0  0  0  0  0  0  0  0
    4.9470    1.4800    1.0000 C   0  0  0  0  0  0  0  0  0  0  0  0
    2.7690    1.1410   -0.0180 C   0  0  0  0  0  0  0  0  0  0  0  0
   -0.1010   -2.7570    0.4030 C   0  0  0  0  0  0  0  0  0  0  0  0
    3.0480    2.2700   -0.9450 C   0  0  0  0  0  0  0  0  0  0  0  0
    0.6270   -4.0150   -1.6620 H   0  0  0  0  0  0  0  0  0  0  0  0
    0.1440   -2.7020   -2.7630 H   0  0  0  0  0  0  0  0  0  0  0  0
    1.7600   -3.4350   -2.9070 H   0  0  0  0  0  0  0  0  0  0  0  0
   -0.4740   -0.9300   -2.1380 H   0  0  0  0  0  0  0  0  0  0  0  0
   -2.1870    1.1370   -1.9080 H   0  0  0  0  0  0  0  0  0  0  0  0
   -3.1090   -0.3820   -2.0030 H   0  0  0  0  0  0  0  0  0  0  0  0
   -2.8300    2.8150   -0.0500 H   0  0  0  0  0  0  0  0  0  0  0  0
   -4.7810    3.3690    1.4880 H   0  0  0  0  0  0  0  0  0  0  0  0
    2.4860    3.2130   -2.5950 H   0  0  0  0  0  0  0  0  0  0  0  0
   -6.4770    1.4980    1.7380 H   0  0  0  0  0  0  0  0  0  0  0  0
    0.4470   -0.2780    1.2680 H   0  0  0  0  0  0  0  0  0  0  0  0
    2.7480    0.4620    2.8890 H   0  0  0  0  0  0  0  0  0  0  0  0
    4.3090   -0.3810    2.6810 H   0  0  0  0  0  0  0  0  0  0  0  0
    5.6300    1.3750    1.8300 H   0  0  0  0  0  0  0  0  0  0  0  0
    5.2320    2.0640    0.1370 H   0  0  0  0  0  0  0  0  0  0  0  0
    0.5190   -3.3730    1.0370 H   0  0  0  0  0  0  0  0  0  0  0  0
  1  3  1  0  0  0  0
  1 25  1  0  0  0  0
  1 26  1  0  0  0  0
  1 27  1  0  0  0  0
  2  5  1  0  0  0  0
  2  8  1  0  0  0  0
  2 28  1  0  0  0  0
  3  5  1  0  0  0  0
  4 11  1  0  0  0  0
  4 17  1  0  0  0  0
  5 18  1  0  0  0  0
  5 23  1  0  0  0  0
  6  8  2  0  0  0  0
  7 19  1  0  0  0  0
  7 18  1  0  0  0  0
  8 10  1  0  0  0  0
  9 18  1  0  0  0  0
  9 22  2  0  0  0  0
 10 11  1  0  0  0  0
 10 29  1  0  0  0  0
 10 30  1  0  0  0  0
 11 13  2  0  0  0  0
 12 23  2  0  0  0  0
 13 15  1  0  0  0  0
 13 31  1  0  0  0  0
 14 24  2  0  0  0  0
 15 17  2  0  0  0  0
 15 32  1  0  0  0  0
 16 24  1  0  0  0  0
 16 33  1  0  0  0  0
 17 34  1  0  0  0  0
 18 35  1  0  0  0  0
 19 20  1  0  0  0  0
 19 36  1  0  0  0  0
 19 37  1  0  0  0  0
 20 21  2  0  0  0  0
 20 22  1  0  0  0  0
 21 38  1  0  0  0  0
 21 39  1  0  0  0  0
 22 24  1  0  0  0  0
 23 40  1  0  0  0  0
M  END
> <OPENEYE_ISO_SMILES>
CO[C@@](C=O)([C@@H]1N=C(C(=C)CS1)C(=O)O)NC(=O)Cc2cccs2

> <OPENEYE_INCHI>
InChI=1S/C15H16N2O5S2/c1-9-7-24-14(16-12(9)13(20)21)15(8-18,22-2)17-11(19)6-10-4-3-5-23-10/h3-5,8,14H,1,6-7H2,2H3,(H,17,19)(H,20,21)/t14-,15+/m1/s1

> <OPENEYE_INCHIKEY>
BMQDZZSQSZJJQV-CABCVRRESA-N

> <FORMULA>
C15H16N2O5S2

$$$$
