1X6
  -OEChem-07282321083D

 22 21  0     1  0  0  0  0  0999 V2000
    1.9310    1.8540   -0.1860 N   0  0  0  0  0  0  0  0  0  0  0  0
    1.9120    0.5190    0.4270 C   0  0  2  0  0  0  0  0  0  0  0  0
    3.1910   -0.2050    0.0940 C   0  0  0  0  0  0  0  0  0  0  0  0
    3.8590    0.1520   -0.8470 O   0  0  0  0  0  0  0  0  0  0  0  0
    0.7200   -0.2740   -0.1140 C   0  0  0  0  0  0  0  0  0  0  0  0
   -0.4960    0.3510    0.3020 O   0  0  0  0  0  0  0  0  0  0  0  0
   -1.6480   -0.2290   -0.0950 C   0  0  0  0  0  0  0  0  0  0  0  0
   -1.6200   -1.2370   -0.7750 O   0  0  0  0  0  0  0  0  0  0  0  0
   -2.8870    0.3350    0.2800 C   0  0  0  0  0  0  0  0  0  0  0  0
   -4.0410   -0.2440   -0.1160 C   0  0  0  0  0  0  0  0  0  0  0  0
   -5.2390    0.3020    0.2460 N   0  0  0  0  0  0  0  0  0  0  0  0
    3.5870   -1.2470    0.8420 O   0  0  0  0  0  0  0  0  0  0  0  0
    2.6700    2.4200    0.2020 H   0  0  0  0  0  0  0  0  0  0  0  0
    2.0140    1.7900   -1.1900 H   0  0  0  0  0  0  0  0  0  0  0  0
    1.8220    0.6180    1.5090 H   0  0  0  0  0  0  0  0  0  0  0  0
    0.7640   -0.2960   -1.2030 H   0  0  0  0  0  0  0  0  0  0  0  0
    0.7570   -1.2920    0.2720 H   0  0  0  0  0  0  0  0  0  0  0  0
   -2.9120    1.2300    0.8840 H   0  0  0  0  0  0  0  0  0  0  0  0
   -4.0160   -1.1390   -0.7210 H   0  0  0  0  0  0  0  0  0  0  0  0
   -5.2620    1.1050    0.7890 H   0  0  0  0  0  0  0  0  0  0  0  0
   -6.0680   -0.1150   -0.0390 H   0  0  0  0  0  0  0  0  0  0  0  0
    4.4140   -1.6790    0.5890 H   0  0  0  0  0  0  0  0  0  0  0  0
  1  2  1  0  0  0  0
  2  3  1  0  0  0  0
  2  5  1  0  0  0  0
  3  4  2  0  0  0  0
  5  6  1  0  0  0  0
  6  7  1  0  0  0  0
  7  8  2  0  0  0  0
  7  9  1  0  0  0  0
  9 10  2  0  0  0  0
 10 11  1  0  0  0  0
  3 12  1  0  0  0  0
  1 13  1  0  0  0  0
  1 14  1  0  0  0  0
  2 15  1  0  0  0  0
  5 16  1  0  0  0  0
  5 17  1  0  0  0  0
  9 18  1  0  0  0  0
 10 19  1  0  0  0  0
 11 20  1  0  0  0  0
 11 21  1  0  0  0  0
 12 22  1  0  0  0  0
M  END
> <OPENEYE_ISO_SMILES>
C([C@@H](C(=O)O)N)OC(=O)/C=C/N

> <OPENEYE_INCHI>
InChI=1S/C6H10N2O4/c7-2-1-5(9)12-3-4(8)6(10)11/h1-2,4H,3,7-8H2,(H,10,11)/b2-1+/t4-/m0/s1

> <OPENEYE_INCHIKEY>
XNIFBFLYOMFDJD-QPHDTYRISA-N

> <FORMULA>
C6H10N2O4

$$$$
