25N
  -OEChem-07282321083D

 40 40  0     0  0  0  0  0  0999 V2000
   -0.0000    3.0910    0.0010 B   0  0  0  0  0  0  0  0  0  0  0  0
    1.2300    3.8010    0.0010 O   0  0  0  0  0  0  0  0  0  0  0  0
   -1.2300    3.8000   -0.0040 O   0  0  0  0  0  0  0  0  0  0  0  0
   -0.0000    1.5200    0.0000 C   0  0  0  0  0  0  0  0  0  0  0  0
    1.2060    0.8210   -0.0000 C   0  0  0  0  0  0  0  0  0  0  0  0
    1.2000   -0.5590   -0.0000 C   0  0  0  0  0  0  0  0  0  0  0  0
    2.5030   -1.3160   -0.0000 C   0  0  0  0  0  0  0  0  0  0  0  0
    2.5810   -2.1960   -1.2500 C   0  0  0  0  0  0  0  0  0  0  0  0
    3.6690   -0.3260   -0.0000 C   0  0  0  0  0  0  0  0  0  0  0  0
    2.5810   -2.1960    1.2490 C   0  0  0  0  0  0  0  0  0  0  0  0
    0.0000   -1.2480   -0.0000 C   0  0  0  0  0  0  0  0  0  0  0  0
   -1.2000   -0.5590   -0.0000 C   0  0  0  0  0  0  0  0  0  0  0  0
   -2.5030   -1.3160   -0.0000 C   0  0  0  0  0  0  0  0  0  0  0  0
   -2.5810   -2.1960   -1.2500 C   0  0  0  0  0  0  0  0  0  0  0  0
   -2.5810   -2.1970    1.2490 C   0  0  0  0  0  0  0  0  0  0  0  0
   -3.6690   -0.3260   -0.0000 C   0  0  0  0  0  0  0  0  0  0  0  0
   -1.2060    0.8210    0.0060 C   0  0  0  0  0  0  0  0  0  0  0  0
    1.1290    4.7620    0.0020 H   0  0  0  0  0  0  0  0  0  0  0  0
   -1.1290    4.7620   -0.0030 H   0  0  0  0  0  0  0  0  0  0  0  0
    2.1430    1.3580   -0.0010 H   0  0  0  0  0  0  0  0  0  0  0  0
    2.5250   -1.5690   -2.1400 H   0  0  0  0  0  0  0  0  0  0  0  0
    3.5230   -2.7440   -1.2500 H   0  0  0  0  0  0  0  0  0  0  0  0
    1.7500   -2.9020   -1.2500 H   0  0  0  0  0  0  0  0  0  0  0  0
    3.6130    0.3010    0.8900 H   0  0  0  0  0  0  0  0  0  0  0  0
    4.6110   -0.8740   -0.0000 H   0  0  0  0  0  0  0  0  0  0  0  0
    3.6130    0.3010   -0.8900 H   0  0  0  0  0  0  0  0  0  0  0  0
    1.7500   -2.9020    1.2490 H   0  0  0  0  0  0  0  0  0  0  0  0
    3.5230   -2.7440    1.2490 H   0  0  0  0  0  0  0  0  0  0  0  0
    2.5250   -1.5700    2.1390 H   0  0  0  0  0  0  0  0  0  0  0  0
    0.0000   -2.3280   -0.0000 H   0  0  0  0  0  0  0  0  0  0  0  0
   -1.7500   -2.9020   -1.2500 H   0  0  0  0  0  0  0  0  0  0  0  0
   -3.5230   -2.7440   -1.2500 H   0  0  0  0  0  0  0  0  0  0  0  0
   -2.5250   -1.5690   -2.1400 H   0  0  0  0  0  0  0  0  0  0  0  0
   -2.5250   -1.5700    2.1390 H   0  0  0  0  0  0  0  0  0  0  0  0
   -3.5230   -2.7440    1.2490 H   0  0  0  0  0  0  0  0  0  0  0  0
   -1.7500   -2.9020    1.2490 H   0  0  0  0  0  0  0  0  0  0  0  0
   -3.6130    0.3010   -0.8900 H   0  0  0  0  0  0  0  0  0  0  0  0
   -4.6110   -0.8740   -0.0000 H   0  0  0  0  0  0  0  0  0  0  0  0
   -3.6130    0.3010    0.8900 H   0  0  0  0  0  0  0  0  0  0  0  0
   -2.1430    1.3580    0.0100 H   0  0  0  0  0  0  0  0  0  0  0  0
  1  2  1  0  0  0  0
  1  3  1  0  0  0  0
  1  4  1  0  0  0  0
 13 14  1  0  0  0  0
  4 17  2  0  0  0  0
 12 17  1  0  0  0  0
 13 16  1  0  0  0  0
  4  5  1  0  0  0  0
 12 13  1  0  0  0  0
 13 15  1  0  0  0  0
 11 12  2  0  0  0  0
  5  6  2  0  0  0  0
  6 11  1  0  0  0  0
  6  7  1  0  0  0  0
  7  8  1  0  0  0  0
  7  9  1  0  0  0  0
  7 10  1  0  0  0  0
  2 18  1  0  0  0  0
  3 19  1  0  0  0  0
  5 20  1  0  0  0  0
  8 21  1  0  0  0  0
  8 22  1  0  0  0  0
  8 23  1  0  0  0  0
  9 24  1  0  0  0  0
  9 25  1  0  0  0  0
  9 26  1  0  0  0  0
 10 27  1  0  0  0  0
 10 28  1  0  0  0  0
 10 29  1  0  0  0  0
 11 30  1  0  0  0  0
 14 31  1  0  0  0  0
 14 32  1  0  0  0  0
 14 33  1  0  0  0  0
 15 34  1  0  0  0  0
 15 35  1  0  0  0  0
 15 36  1  0  0  0  0
 16 37  1  0  0  0  0
 16 38  1  0  0  0  0
 16 39  1  0  0  0  0
 17 40  1  0  0  0  0
M  END
> <OPENEYE_ISO_SMILES>
B(c1cc(cc(c1)C(C)(C)C)C(C)(C)C)(O)O

> <OPENEYE_INCHI>
InChI=1S/C14H23BO2/c1-13(2,3)10-7-11(14(4,5)6)9-12(8-10)15(16)17/h7-9,16-17H,1-6H3

> <OPENEYE_INCHIKEY>
RPCBIEHUQSGPNA-UHFFFAOYSA-N

> <FORMULA>
C14H23BO2

$$$$
