2AW
  -OEChem-07282321083D

 48 47  0     1  0  0  0  0  0999 V2000
   -9.4440   -0.2910   -0.4530 O   0  0  0  0  0  0  0  0  0  0  0  0
   -8.2620    0.1390    0.0150 C   0  0  0  0  0  0  0  0  0  0  0  0
   -8.2240    1.0110    0.8500 O   0  0  0  0  0  0  0  0  0  0  0  0
   -6.9820   -0.4680   -0.5010 C   0  0  0  0  0  0  0  0  0  0  0  0
   -5.7890    0.1950    0.1910 C   0  0  0  0  0  0  0  0  0  0  0  0
   -4.4900   -0.4200   -0.3320 C   0  0  0  0  0  0  0  0  0  0  0  0
   -3.2970    0.2430    0.3590 C   0  0  0  0  0  0  0  0  0  0  0  0
   -2.0170   -0.3630   -0.1560 C   0  0  0  0  0  0  0  0  0  0  0  0
   -2.0550   -1.2360   -0.9910 O   0  0  0  0  0  0  0  0  0  0  0  0
   -0.8350    0.0660    0.3120 O   0  0  0  0  0  0  0  0  0  0  0  0
    0.3570   -0.5630   -0.2290 C   0  0  0  0  0  0  0  0  0  0  0  0
    1.5980    0.0530    0.4190 C   0  0  2  0  0  0  0  0  0  0  0  0
    1.5470   -0.1700    1.9320 C   0  0  0  0  0  0  0  0  0  0  0  0
    1.6430    1.8320    0.0710 S   0  0  2  0  0  0  0  0  0  0  0  0
    0.3770    2.4050    0.3700 O   0  0  0  0  0  0  0  0  0  0  0  0
    1.6910    1.8830   -1.4490 O   0  0  0  0  0  0  0  0  0  0  0  0
    2.8540   -0.6100   -0.1510 C   0  0  2  0  0  0  0  0  0  0  0  0
    2.7590   -2.1030    0.0290 C   0  0  0  0  0  0  0  0  0  0  0  0
    1.7490   -2.7850   -0.5340 O   0  0  0  0  0  0  0  0  0  0  0  0
    3.5930   -2.6870    0.6790 O   0  0  0  0  0  0  0  0  0  0  0  0
    4.0380   -0.1050    0.5560 N   0  0  0  0  0  0  0  0  0  0  0  0
    5.2400   -0.2190   -0.2820 C   0  0  0  0  0  0  0  0  0  0  0  0
    6.4500    0.3150    0.4860 C   0  0  0  0  0  0  0  0  0  0  0  0
    7.6820    0.1990   -0.3730 C   0  0  0  0  0  0  0  0  0  0  0  0
    8.3600    1.1740   -0.5920 O   0  0  0  0  0  0  0  0  0  0  0  0
  -10.2380    0.1280   -0.0930 H   0  0  0  0  0  0  0  0  0  0  0  0
   -6.9760   -1.5370   -0.2900 H   0  0  0  0  0  0  0  0  0  0  0  0
   -6.9120   -0.3090   -1.5770 H   0  0  0  0  0  0  0  0  0  0  0  0
   -5.7950    1.2650   -0.0200 H   0  0  0  0  0  0  0  0  0  0  0  0
   -5.8590    0.0370    1.2670 H   0  0  0  0  0  0  0  0  0  0  0  0
   -4.4840   -1.4900   -0.1220 H   0  0  0  0  0  0  0  0  0  0  0  0
   -4.4200   -0.2620   -1.4080 H   0  0  0  0  0  0  0  0  0  0  0  0
   -3.3030    1.3120    0.1480 H   0  0  0  0  0  0  0  0  0  0  0  0
   -3.3660    0.0840    1.4350 H   0  0  0  0  0  0  0  0  0  0  0  0
    0.3300   -1.6320   -0.0200 H   0  0  0  0  0  0  0  0  0  0  0  0
    0.3940   -0.4040   -1.3070 H   0  0  0  0  0  0  0  0  0  0  0  0
    1.5200   -1.2400    2.1410 H   0  0  0  0  0  0  0  0  0  0  0  0
    2.4310    0.2680    2.3940 H   0  0  0  0  0  0  0  0  0  0  0  0
    0.6520    0.3020    2.3390 H   0  0  0  0  0  0  0  0  0  0  0  0
    2.9370   -0.3770   -1.2130 H   0  0  0  0  0  0  0  0  0  0  0  0
    1.7310   -3.7410   -0.3900 H   0  0  0  0  0  0  0  0  0  0  0  0
    5.4050   -1.2650   -0.5400 H   0  0  0  0  0  0  0  0  0  0  0  0
    6.2840    1.3610    0.7440 H   0  0  0  0  0  0  0  0  0  0  0  0
    6.5870   -0.2660    1.3980 H   0  0  0  0  0  0  0  0  0  0  0  0
    7.9590   -0.7570   -0.7930 H   0  0  0  0  0  0  0  0  0  0  0  0
    3.8990    0.8460    0.8610 H   0  0  0  0  0  0  0  0  0  0  0  0
    5.1030    0.3620   -1.1940 H   0  0  0  0  0  0  0  0  0  0  0  0
    1.7200    2.7790   -1.8120 H   0  0  0  0  0  0  0  0  0  0  0  0
  8  9  2  0  0  0  0
  7  8  1  0  0  0  0
  8 10  1  0  0  0  0
  6  7  1  0  0  0  0
 10 11  1  0  0  0  0
  5  6  1  0  0  0  0
 11 12  1  0  0  0  0
 12 13  1  0  0  0  0
 14 15  2  0  0  0  0
 12 14  1  0  0  0  0
 12 17  1  0  0  0  0
  4  5  1  0  0  0  0
 14 16  1  0  0  0  0
  2  3  2  0  0  0  0
  1  2  1  0  0  0  0
  2  4  1  0  0  0  0
 17 21  1  0  0  0  0
 17 18  1  0  0  0  0
 21 22  1  0  0  0  0
 18 20  2  0  0  0  0
 18 19  1  0  0  0  0
 22 23  1  0  0  0  0
 23 24  1  0  0  0  0
 24 25  2  0  0  0  0
  1 26  1  0  0  0  0
  4 27  1  0  0  0  0
  4 28  1  0  0  0  0
  5 29  1  0  0  0  0
  5 30  1  0  0  0  0
  6 31  1  0  0  0  0
  6 32  1  0  0  0  0
  7 33  1  0  0  0  0
  7 34  1  0  0  0  0
 11 35  1  0  0  0  0
 11 36  1  0  0  0  0
 13 37  1  0  0  0  0
 13 38  1  0  0  0  0
 13 39  1  0  0  0  0
 17 40  1  0  0  0  0
 19 41  1  0  0  0  0
 22 42  1  0  0  0  0
 23 43  1  0  0  0  0
 23 44  1  0  0  0  0
 24 45  1  0  0  0  0
 21 46  1  0  0  0  0
 22 47  1  0  0  0  0
 16 48  1  0  0  0  0
M  END
> <OPENEYE_ISO_SMILES>
C[C@](COC(=O)CCCCC(=O)O)([C@H](C(=O)O)NCCC=O)[S@](=O)O

> <OPENEYE_INCHI>
InChI=1S/C14H23NO9S/c1-14(25(22)23,12(13(20)21)15-7-4-8-16)9-24-11(19)6-3-2-5-10(17)18/h8,12,15H,2-7,9H2,1H3,(H,17,18)(H,20,21)(H,22,23)/t12-,14-/m0/s1

> <OPENEYE_INCHIKEY>
XJDMDWLRMVEPAR-JSGCOSHPSA-N

> <FORMULA>
C14H23NO9S

$$$$
