2GK
  -OEChem-07282321083D

 26 27  0     0  0  0  0  0  0999 V2000
    4.1310    1.5840   -0.1590 C   0  0  0  0  0  0  0  0  0  0  0  0
    3.1180    2.5140    0.0380 C   0  0  0  0  0  0  0  0  0  0  0  0
    1.8250    2.1110    0.1630 C   0  0  0  0  0  0  0  0  0  0  0  0
    2.5090   -0.1930   -0.1010 C   0  0  0  0  0  0  0  0  0  0  0  0
    0.2090   -1.2480    0.0970 C   0  0  0  0  0  0  0  0  0  0  0  0
    0.1790    0.1120    0.2080 C   0  0  0  0  0  0  0  0  0  0  0  0
   -1.0550   -2.1750    0.1790 B   0  0  0  0  0  0  0  0  0  0  0  0
    1.4910    0.7420    0.0970 C   0  0  0  0  0  0  0  0  0  0  0  0
    1.8460   -1.8220   -0.1480 S   0  0  0  0  0  0  0  0  0  0  0  0
    3.8340    0.2440   -0.2280 C   0  0  0  0  0  0  0  0  0  0  0  0
   -1.0570    0.8700    0.4190 C   0  0  0  0  0  0  0  0  0  0  0  0
   -2.1310    0.6470   -0.3740 C   0  0  0  0  0  0  0  0  0  0  0  0
   -3.3640    1.4040   -0.1630 C   0  0  0  0  0  0  0  0  0  0  0  0
   -0.9140   -3.5830    0.0510 O   0  0  0  0  0  0  0  0  0  0  0  0
   -2.3410   -1.6070    0.3810 O   0  0  0  0  0  0  0  0  0  0  0  0
   -3.4250    2.2330    0.7240 O   0  0  0  0  0  0  0  0  0  0  0  0
   -4.4350    1.1820   -0.9540 O   0  0  0  0  0  0  0  0  0  0  0  0
    5.1540    1.9140   -0.2620 H   0  0  0  0  0  0  0  0  0  0  0  0
    3.3600    3.5650    0.0910 H   0  0  0  0  0  0  0  0  0  0  0  0
    1.0480    2.8450    0.3160 H   0  0  0  0  0  0  0  0  0  0  0  0
    4.6250   -0.4740   -0.3850 H   0  0  0  0  0  0  0  0  0  0  0  0
   -1.1110    1.6060    1.2070 H   0  0  0  0  0  0  0  0  0  0  0  0
   -2.0770   -0.0890   -1.1620 H   0  0  0  0  0  0  0  0  0  0  0  0
   -1.7470   -4.0690    0.1150 H   0  0  0  0  0  0  0  0  0  0  0  0
   -3.0570   -2.2560    0.4170 H   0  0  0  0  0  0  0  0  0  0  0  0
   -5.2020    1.7290   -0.7390 H   0  0  0  0  0  0  0  0  0  0  0  0
  1  2  2  0  0  0  0
  2  3  1  0  0  0  0
 13 16  2  0  0  0  0
  1 10  1  0  0  0  0
  3  8  2  0  0  0  0
 13 17  1  0  0  0  0
 12 13  1  0  0  0  0
  4 10  2  0  0  0  0
  4  8  1  0  0  0  0
  6  8  1  0  0  0  0
 11 12  2  0  0  0  0
  4  9  1  0  0  0  0
  6 11  1  0  0  0  0
  7 14  1  0  0  0  0
  5  6  2  0  0  0  0
  5  9  1  0  0  0  0
  5  7  1  0  0  0  0
  7 15  1  0  0  0  0
  1 18  1  0  0  0  0
  2 19  1  0  0  0  0
  3 20  1  0  0  0  0
 10 21  1  0  0  0  0
 11 22  1  0  0  0  0
 12 23  1  0  0  0  0
 14 24  1  0  0  0  0
 15 25  1  0  0  0  0
 17 26  1  0  0  0  0
M  END
> <OPENEYE_ISO_SMILES>
B(c1c(c2ccccc2s1)/C=C/C(=O)O)(O)O

> <OPENEYE_INCHI>
InChI=1S/C11H9BO4S/c13-10(14)6-5-8-7-3-1-2-4-9(7)17-11(8)12(15)16/h1-6,15-16H,(H,13,14)/b6-5+

> <OPENEYE_INCHIKEY>
IYRVQPJBSDCZBO-AATRIKPKSA-N

> <FORMULA>
C11H9BO4S

$$$$
