REMARK  6 active torsions:
REMARK  status: ('A' for Active; 'I' for Inactive)
REMARK    1  A    between atoms: C_5  and  B_7 
REMARK    2  A    between atoms: C_6  and  C_11 
REMARK    3  A    between atoms: B_7  and  O_14 
REMARK    4  A    between atoms: B_7  and  O_15 
REMARK    5  A    between atoms: C_12  and  C_13 
REMARK    6  A    between atoms: C_13  and  O_17 
ROOT
HETATM    1  C   UNL     1       4.131   1.584  -0.159  1.00  0.00     0.001 A 
HETATM    2  C   UNL     1       3.118   2.514   0.038  1.00  0.00     0.001 A 
HETATM    3  C   UNL     1       1.825   2.111   0.163  1.00  0.00     0.013 A 
HETATM    4  C   UNL     1       2.509  -0.193  -0.101  1.00  0.00     0.015 A 
HETATM    5  C   UNL     1       0.209  -1.248   0.097  1.00  0.00     0.021 A 
HETATM    6  C   UNL     1       0.179   0.112   0.208  1.00  0.00    -0.017 A 
HETATM    7  C   UNL     1       1.491   0.742   0.097  1.00  0.00    -0.009 A 
HETATM    8  S   UNL     1       1.846  -1.822  -0.148  1.00  0.00    -0.100 SA
HETATM    9  C   UNL     1       3.834   0.244  -0.228  1.00  0.00     0.019 A 
ENDROOT
BRANCH   6  10
HETATM   10  C   UNL     1      -1.057   0.870   0.419  1.00  0.00     0.019 C 
HETATM   11  C   UNL     1      -2.131   0.647  -0.374  1.00  0.00     0.082 C 
BRANCH  11  12
HETATM   12  C   UNL     1      -3.364   1.404  -0.163  1.00  0.00     0.165 C 
HETATM   13  O   UNL     1      -3.425   2.233   0.724  1.00  0.00    -0.647 OA
BRANCH  12  14
HETATM   14  O   UNL     1      -4.435   1.182  -0.954  1.00  0.00    -0.773 OA
HETATM   15  H   UNL     1      -5.202   1.729  -0.739  1.00  0.00     0.167 HD
ENDBRANCH  12  14
ENDBRANCH  11  12
ENDBRANCH   6  10
BRANCH   5  16
HETATM   16  B   UNL     1      -1.055  -2.175   0.179  1.00  0.00     0.537 B 
BRANCH  16  17
HETATM   17  O   UNL     1      -0.914  -3.583   0.051  1.00  0.00    -0.433 OA
HETATM   18  H   UNL     1      -1.747  -4.069   0.115  1.00  0.00     0.185 HD
ENDBRANCH  16  17
BRANCH  16  19
HETATM   19  O   UNL     1      -2.341  -1.607   0.381  1.00  0.00    -0.433 OA
HETATM   20  H   UNL     1      -3.057  -2.256   0.417  1.00  0.00     0.185 HD
ENDBRANCH  16  19
ENDBRANCH   5  16
TORSDOF 6
