2RG
  -OEChem-07282321083D

 60 62  0     1  0  0  0  0  0999 V2000
   -3.4650   -0.6530   -0.3000 C   0  0  0  0  0  0  0  0  0  0  0  0
   -1.5520   -0.6720   -1.8490 N   0  0  0  0  0  0  0  0  0  0  0  0
   -3.8240    0.3650   -0.8530 O   0  0  0  0  0  0  0  0  0  0  0  0
   -2.0970   -1.2200   -0.5810 C   0  0  1  0  0  0  0  0  0  0  0  0
   -1.0770   -0.7380    0.4810 C   0  0  0  0  0  0  0  0  0  0  0  0
   -0.0840   -0.8260   -1.7570 C   0  0  0  0  0  0  0  0  0  0  0  0
    0.2750   -0.8540   -0.2600 C   0  0  1  0  0  0  0  0  0  0  0  0
    6.7390    0.5300   -0.8520 C   0  0  0  0  0  0  0  0  0  0  0  0
    6.2030    1.2410    0.3640 C   0  0  1  0  0  0  0  0  0  0  0  0
    7.2820    1.1580   -1.7280 O   0  0  0  0  0  0  0  0  0  0  0  0
    4.7360    0.8600    0.5730 C   0  0  1  0  0  0  0  0  0  0  0  0
    7.0170    0.8320    1.5940 C   0  0  1  0  0  0  0  0  0  0  0  0
    8.4840    1.2140    1.3840 C   0  0  0  0  0  0  0  0  0  0  0  0
    6.5090    1.5070    2.7470 O   0  0  0  0  0  0  0  0  0  0  0  0
    3.8780    1.3530   -0.6160 C   0  0  2  0  0  0  0  0  0  0  0  0
    2.8720    0.1840   -0.7510 C   0  0  2  0  0  0  0  0  0  0  0  0
    4.5840   -0.6000    0.5740 N   0  0  0  0  0  0  0  0  0  0  0  0
    1.3440    0.5500    0.1570 S   0  0  0  0  0  0  0  0  0  0  0  0
    3.5940   -0.9880   -0.1250 C   0  0  0  0  0  0  0  0  0  0  0  0
    3.1990   -2.4060   -0.3030 C   0  0  0  0  0  0  0  0  0  0  0  0
    4.7240    1.5030   -1.8820 C   0  0  0  0  0  0  0  0  0  0  0  0
    3.9070   -3.3820    0.2960 O   0  0  0  0  0  0  0  0  0  0  0  0
    2.2380   -2.6870   -0.9890 O   0  0  0  0  0  0  0  0  0  0  0  0
   -4.2860   -1.2730    0.5700 N   0  0  0  0  0  0  0  0  0  0  0  0
   -5.5130   -0.6920    0.9110 C   0  0  0  0  0  0  0  0  0  0  0  0
   -6.2320    0.0140   -0.0400 C   0  0  0  0  0  0  0  0  0  0  0  0
   -7.4550    0.5920    0.3050 C   0  0  0  0  0  0  0  0  0  0  0  0
   -7.9450    0.4530    1.6050 C   0  0  0  0  0  0  0  0  0  0  0  0
   -7.2210   -0.2520    2.5440 C   0  0  0  0  0  0  0  0  0  0  0  0
   -6.0120   -0.8290    2.2010 C   0  0  0  0  0  0  0  0  0  0  0  0
   -8.2280    1.3470   -0.7020 C   0  0  0  0  0  0  0  0  0  0  0  0
   -7.8000    1.4670   -1.8330 O   0  0  0  0  0  0  0  0  0  0  0  0
   -9.4080    1.9030   -0.3670 O   0  0  0  0  0  0  0  0  0  0  0  0
   -1.8070    0.2980   -1.9630 H   0  0  0  0  0  0  0  0  0  0  0  0
   -2.1330   -2.3090   -0.6160 H   0  0  0  0  0  0  0  0  0  0  0  0
   -1.2740    0.2960    0.7640 H   0  0  0  0  0  0  0  0  0  0  0  0
   -1.0960   -1.3860    1.3570 H   0  0  0  0  0  0  0  0  0  0  0  0
    0.2210   -1.7600   -2.2300 H   0  0  0  0  0  0  0  0  0  0  0  0
    0.4090    0.0160   -2.2420 H   0  0  0  0  0  0  0  0  0  0  0  0
    0.7660   -1.7930   -0.0060 H   0  0  0  0  0  0  0  0  0  0  0  0
    6.6360   -0.5410   -0.9400 H   0  0  0  0  0  0  0  0  0  0  0  0
    6.2810    2.3190    0.2190 H   0  0  0  0  0  0  0  0  0  0  0  0
    4.3660    1.2800    1.5090 H   0  0  0  0  0  0  0  0  0  0  0  0
    6.9390   -0.2450    1.7390 H   0  0  0  0  0  0  0  0  0  0  0  0
    8.5620    2.2910    1.2390 H   0  0  0  0  0  0  0  0  0  0  0  0
    9.0630    0.9220    2.2600 H   0  0  0  0  0  0  0  0  0  0  0  0
    8.8710    0.6990    0.5050 H   0  0  0  0  0  0  0  0  0  0  0  0
    6.5480    2.4710    2.6870 H   0  0  0  0  0  0  0  0  0  0  0  0
    3.3680    2.2850   -0.3730 H   0  0  0  0  0  0  0  0  0  0  0  0
    2.6550   -0.0150   -1.8010 H   0  0  0  0  0  0  0  0  0  0  0  0
    5.1320    0.5320   -2.1630 H   0  0  0  0  0  0  0  0  0  0  0  0
    4.1010    1.8830   -2.6920 H   0  0  0  0  0  0  0  0  0  0  0  0
    5.5400    2.2000   -1.6930 H   0  0  0  0  0  0  0  0  0  0  0  0
    3.6120   -4.2920    0.1510 H   0  0  0  0  0  0  0  0  0  0  0  0
   -4.0270   -2.1230    0.9600 H   0  0  0  0  0  0  0  0  0  0  0  0
   -5.8480    0.1180   -1.0440 H   0  0  0  0  0  0  0  0  0  0  0  0
   -8.8910    0.8990    1.8760 H   0  0  0  0  0  0  0  0  0  0  0  0
   -7.6010   -0.3580    3.5490 H   0  0  0  0  0  0  0  0  0  0  0  0
   -5.4510   -1.3830    2.9390 H   0  0  0  0  0  0  0  0  0  0  0  0
   -9.8780    2.3880   -1.0600 H   0  0  0  0  0  0  0  0  0  0  0  0
  1  3  2  0  0  0  0
  1  4  1  0  0  0  0
  1 24  1  0  0  0  0
  2  6  1  0  0  0  0
  2  4  1  0  0  0  0
  2 34  1  0  0  0  0
  4  5  1  0  0  0  0
  4 35  1  0  0  0  0
  5  7  1  0  0  0  0
  5 36  1  0  0  0  0
  5 37  1  0  0  0  0
  6  7  1  0  0  0  0
  6 38  1  0  0  0  0
  6 39  1  0  0  0  0
  7 18  1  0  0  0  0
  7 40  1  0  0  0  0
  8 10  2  0  0  0  0
  8  9  1  0  0  0  0
  8 41  1  0  0  0  0
  9 11  1  0  0  0  0
  9 12  1  0  0  0  0
  9 42  1  0  0  0  0
 11 15  1  0  0  0  0
 11 17  1  0  0  0  0
 11 43  1  0  0  0  0
 12 13  1  0  0  0  0
 12 14  1  0  0  0  0
 12 44  1  0  0  0  0
 13 45  1  0  0  0  0
 13 46  1  0  0  0  0
 13 47  1  0  0  0  0
 14 48  1  0  0  0  0
 15 21  1  0  0  0  0
 15 16  1  0  0  0  0
 15 49  1  0  0  0  0
 16 19  1  0  0  0  0
 16 18  1  0  0  0  0
 16 50  1  0  0  0  0
 17 19  2  0  0  0  0
 19 20  1  0  0  0  0
 20 23  2  0  0  0  0
 20 22  1  0  0  0  0
 21 51  1  0  0  0  0
 21 52  1  0  0  0  0
 21 53  1  0  0  0  0
 22 54  1  0  0  0  0
 24 25  1  0  0  0  0
 24 55  1  0  0  0  0
 25 26  2  0  0  0  0
 25 30  1  0  0  0  0
 26 27  1  0  0  0  0
 26 56  1  0  0  0  0
 27 31  1  0  0  0  0
 27 28  2  0  0  0  0
 28 29  1  0  0  0  0
 28 57  1  0  0  0  0
 29 30  2  0  0  0  0
 29 58  1  0  0  0  0
 30 59  1  0  0  0  0
 31 32  2  0  0  0  0
 31 33  1  0  0  0  0
 33 60  1  0  0  0  0
M  END
> <OPENEYE_ISO_SMILES>
C[C@H]1[C@@H](C(=N[C@H]1[C@H](C=O)[C@@H](C)O)C(=O)O)S[C@H]2C[C@H](NC2)C(=O)Nc3cccc(c3)C(=O)O

> <OPENEYE_INCHI>
InChI=1S/C22H27N3O7S/c1-10-17(15(9-26)11(2)27)25-18(22(31)32)19(10)33-14-7-16(23-8-14)20(28)24-13-5-3-4-12(6-13)21(29)30/h3-6,9-11,14-17,19,23,27H,7-8H2,1-2H3,(H,24,28)(H,29,30)(H,31,32)/t10-,11-,14+,15-,16+,17-,19+/m1/s1

> <OPENEYE_INCHIKEY>
RALHTEQYPKBGFO-SAGZMZRGSA-N

> <FORMULA>
C22H27N3O7S

$$$$
