REMARK  8 active torsions:
REMARK  status: ('A' for Active; 'I' for Inactive)
REMARK    1  A    between atoms: C_2  and  O_4 
REMARK    2  A    between atoms: O_4  and  C_5 
REMARK    3  A    between atoms: CA_9  and  C_10 
REMARK    4  A    between atoms: C_10  and  OXT_12 
REMARK    5  A    between atoms: C_14  and  CA_15 
REMARK    6  A    between atoms: CA_15  and  C_19 
REMARK    7  A    between atoms: CA_15  and  N_16 
REMARK    8  A    between atoms: N_16  and  C_17 
ROOT
HETATM    1  C   UNL     1      -2.671  -0.074  -0.062  1.00  0.00     0.156 C 
HETATM    2  C   UNL     1      -1.412   0.222   0.295  1.00  0.00     0.009 C 
HETATM    3  C   UNL     1      -1.025   1.652   0.619  1.00  0.00     0.119 C 
HETATM    4  S   UNL     1       0.602   1.942  -0.150  1.00  0.00    -0.134 SA
HETATM    5  CA  UNL     1      -0.403  -0.831   0.381  1.00  0.00     0.134 C 
HETATM    6  N   UNL     1       0.861  -0.663   0.476  1.00  0.00    -0.264 NA
HETATM    7  C   UNL     1       1.585   0.595   0.571  1.00  0.00     0.199 C 
ENDROOT
BRANCH   7   8
HETATM    8  CA  UNL     1       2.908   0.472  -0.188  1.00  0.00     0.180 C 
BRANCH   8   9
HETATM    9  C   UNL     1       3.726   1.721   0.022  1.00  0.00     0.259 C 
HETATM   10  O   UNL     1       4.816   1.650   0.535  1.00  0.00    -0.305 OA
ENDBRANCH   8   9
BRANCH   8  11
HETATM   11  N   UNL     1       3.652  -0.687   0.311  1.00  0.00    -0.354 N 
HETATM   12  H   UNL     1       3.494  -1.014   1.211  1.00  0.00     0.162 HD
BRANCH  11  13
HETATM   13  C   UNL     1       4.554  -1.301  -0.480  1.00  0.00     0.349 C 
HETATM   14  O   UNL     1       4.751  -0.892  -1.605  1.00  0.00    -0.284 OA
ENDBRANCH  11  13
ENDBRANCH   8  11
ENDBRANCH   7   8
BRANCH   5  15
HETATM   15  C   UNL     1      -0.893  -2.235   0.354  1.00  0.00     0.196 C 
HETATM   16  O   UNL     1      -2.085  -2.462   0.388  1.00  0.00    -0.645 OA
BRANCH  15  17
HETATM   17  OXT UNL     1      -0.016  -3.253   0.292  1.00  0.00    -0.772 OA
HETATM   18  HXT UNL     1      -0.382  -4.148   0.276  1.00  0.00     0.167 HD
ENDBRANCH  15  17
ENDBRANCH   5  15
BRANCH   1  19
HETATM   19  O   UNL     1      -3.633   0.874   0.002  1.00  0.00    -0.291 OA
BRANCH  19  20
HETATM   20  C   UNL     1      -4.872   0.512  -0.370  1.00  0.00     0.259 C 
HETATM   21  C   UNL     1      -5.996   1.515  -0.325  1.00  0.00     0.126 C 
HETATM   22  O   UNL     1      -5.086  -0.618  -0.740  1.00  0.00    -0.265 OA
ENDBRANCH  19  20
ENDBRANCH   1  19
TORSDOF 8
