2TV
  -OEChem-07282321083D

 32 32  0     1  0  0  0  0  0999 V2000
   -5.9960    1.5150   -0.3250 C   0  0  0  0  0  0  0  0  0  0  0  0
   -4.8720    0.5120   -0.3700 C   0  0  0  0  0  0  0  0  0  0  0  0
   -5.0860   -0.6180   -0.7400 O   0  0  0  0  0  0  0  0  0  0  0  0
   -3.6330    0.8740    0.0020 O   0  0  0  0  0  0  0  0  0  0  0  0
   -2.6710   -0.0740   -0.0620 C   0  0  0  0  0  0  0  0  0  0  0  0
   -1.4120    0.2220    0.2950 C   0  0  0  0  0  0  0  0  0  0  0  0
   -1.0250    1.6520    0.6190 C   0  0  0  0  0  0  0  0  0  0  0  0
    0.6020    1.9420   -0.1500 S   0  0  0  0  0  0  0  0  0  0  0  0
   -0.4030   -0.8310    0.3810 C   0  0  0  0  0  0  0  0  0  0  0  0
   -0.8930   -2.2350    0.3540 C   0  0  0  0  0  0  0  0  0  0  0  0
   -2.0850   -2.4620    0.3880 O   0  0  0  0  0  0  0  0  0  0  0  0
   -0.0160   -3.2530    0.2920 O   0  0  0  0  0  0  0  0  0  0  0  0
    0.8610   -0.6630    0.4760 N   0  0  0  0  0  0  0  0  0  0  0  0
    1.5850    0.5950    0.5710 C   0  0  1  0  0  0  0  0  0  0  0  0
    2.9080    0.4720   -0.1880 C   0  0  2  0  0  0  0  0  0  0  0  0
    3.6520   -0.6870    0.3110 N   0  0  0  0  0  0  0  0  0  0  0  0
    4.5540   -1.3010   -0.4800 C   0  0  0  0  0  0  0  0  0  0  0  0
    4.7510   -0.8920   -1.6050 O   0  0  0  0  0  0  0  0  0  0  0  0
    3.7260    1.7210    0.0220 C   0  0  0  0  0  0  0  0  0  0  0  0
    4.8160    1.6500    0.5350 O   0  0  0  0  0  0  0  0  0  0  0  0
   -6.9190    1.0420   -0.6600 H   0  0  0  0  0  0  0  0  0  0  0  0
   -6.1210    1.8740    0.6970 H   0  0  0  0  0  0  0  0  0  0  0  0
   -5.7600    2.3550   -0.9790 H   0  0  0  0  0  0  0  0  0  0  0  0
   -1.7620    2.3400    0.2050 H   0  0  0  0  0  0  0  0  0  0  0  0
   -0.9580    1.7840    1.6990 H   0  0  0  0  0  0  0  0  0  0  0  0
   -0.3820   -4.1480    0.2760 H   0  0  0  0  0  0  0  0  0  0  0  0
    1.7920    0.8190    1.6170 H   0  0  0  0  0  0  0  0  0  0  0  0
    2.7070    0.3440   -1.2520 H   0  0  0  0  0  0  0  0  0  0  0  0
    3.4940   -1.0140    1.2110 H   0  0  0  0  0  0  0  0  0  0  0  0
    5.1020   -2.1550   -0.1120 H   0  0  0  0  0  0  0  0  0  0  0  0
    3.3360    2.6800   -0.2870 H   0  0  0  0  0  0  0  0  0  0  0  0
   -2.9160   -1.0700   -0.4000 H   0  0  0  0  0  0  0  0  0  0  0  0
  1 21  1  0  0  0  0
  1 22  1  0  0  0  0
  1 23  1  0  0  0  0
  1  2  1  0  0  0  0
  2  3  2  0  0  0  0
  4  5  1  0  0  0  0
  2  4  1  0  0  0  0
  6  9  1  0  0  0  0
  5  6  2  0  0  0  0
  6  7  1  0  0  0  0
  7 24  1  0  0  0  0
  7 25  1  0  0  0  0
  8 14  1  0  0  0  0
  7  8  1  0  0  0  0
  9 10  1  0  0  0  0
 10 11  2  0  0  0  0
 10 12  1  0  0  0  0
 12 26  1  0  0  0  0
  9 13  2  0  0  0  0
 13 14  1  0  0  0  0
 14 27  1  0  0  0  0
 15 19  1  0  0  0  0
 14 15  1  0  0  0  0
 15 28  1  0  0  0  0
 15 16  1  0  0  0  0
 16 29  1  0  0  0  0
 16 17  1  0  0  0  0
 17 30  1  0  0  0  0
 17 18  2  0  0  0  0
 19 20  2  0  0  0  0
 19 31  1  0  0  0  0
  5 32  1  0  0  0  0
M  END
> <OPENEYE_ISO_SMILES>
CC(=O)O/C=C/1\CS[C@@H](N=C1C(=O)O)[C@@H](C=O)NC=O

> <OPENEYE_INCHI>
InChI=1S/C11H12N2O6S/c1-6(16)19-3-7-4-20-10(8(2-14)12-5-15)13-9(7)11(17)18/h2-3,5,8,10H,4H2,1H3,(H,12,15)(H,17,18)/b7-3+/t8-,10-/m1/s1

> <OPENEYE_INCHIKEY>
FUAVSDQKXSFRBB-WPGHDDCOSA-N

> <FORMULA>
C11H12N2O6S

$$$$
