REMARK  11 active torsions:
REMARK  status: ('A' for Active; 'I' for Inactive)
REMARK    1  A    between atoms: C_6  and  C_7 
REMARK    2  A    between atoms: C_7  and  N_8 
REMARK    3  A    between atoms: C_7  and  C_9 
REMARK       I    between atoms: C_9  and  N_11 
REMARK    4  A    between atoms: N_11  and  C_12 
REMARK    5  A    between atoms: C_12  and  C_16 
REMARK    6  A    between atoms: C_12  and  B_13 
REMARK    7  A    between atoms: B_13  and  O_14 
REMARK    8  A    between atoms: B_13  and  O_15 
REMARK    9  A    between atoms: C_16  and  C_17 
REMARK   10  A    between atoms: C_22  and  C_23 
REMARK   11  A    between atoms: C_23  and  O_25 
ROOT
HETATM    1  C   UNL     1      -0.086   1.023  -0.028  1.00  0.00     0.114 C 
ENDROOT
BRANCH   1   2
HETATM    2  N   UNL     1       1.364   1.102   0.172  1.00  0.00    -0.357 N 
HETATM    3  C   UNL     1       2.201   0.839  -0.851  1.00  0.00     0.255 C 
HETATM    4  O   UNL     1       1.754   0.538  -1.938  1.00  0.00    -0.271 OA
HETATM    5  H   UNL     1       1.721   1.343   1.041  1.00  0.00     0.162 HD
BRANCH   3   6
HETATM    6  C   UNL     1       3.691   0.920  -0.646  1.00  0.00     0.342 C 
BRANCH   6   7
HETATM    7  C   UNL     1       4.175  -0.340   0.024  1.00  0.00    -0.016 A 
HETATM    8  C   UNL     1       4.419  -0.350   1.385  1.00  0.00     0.010 A 
HETATM    9  C   UNL     1       4.862  -1.506   1.999  1.00  0.00     0.001 A 
HETATM   10  C   UNL     1       5.062  -2.653   1.253  1.00  0.00     0.000 A 
HETATM   11  C   UNL     1       4.818  -2.643  -0.108  1.00  0.00     0.001 A 
HETATM   12  C   UNL     1       4.373  -1.487  -0.722  1.00  0.00     0.010 A 
ENDBRANCH   6   7
BRANCH   6  13
HETATM   13  N   UNL     1       4.358   1.071  -1.946  1.00  0.00     0.096 N 
HETATM   14  H   UNL     1       4.156   0.287  -2.548  1.00  0.00     0.314 HD
HETATM   15  H   UNL     1       4.099   1.941  -2.386  1.00  0.00     0.314 HD
ENDBRANCH   6  13
ENDBRANCH   3   6
ENDBRANCH   1   2
BRANCH   1  16
HETATM   16  C   UNL     1      -0.722   0.272   1.143  1.00  0.00     0.059 C 
BRANCH  16  17
HETATM   17  C   UNL     1      -2.213   0.191   0.937  1.00  0.00    -0.056 A 
HETATM   18  C   UNL     1      -2.756  -0.878   0.256  1.00  0.00     0.025 A 
HETATM   19  C   UNL     1      -4.138  -0.952   0.066  1.00  0.00     0.038 A 
HETATM   20  C   UNL     1      -4.960   0.059   0.569  1.00  0.00     0.018 A 
HETATM   21  C   UNL     1      -4.403   1.120   1.253  1.00  0.00     0.002 A 
HETATM   22  C   UNL     1      -3.034   1.187   1.437  1.00  0.00     0.007 A 
BRANCH  19  23
HETATM   23  C   UNL     1      -4.727  -2.093  -0.663  1.00  0.00     0.176 C 
HETATM   24  O   UNL     1      -4.009  -2.971  -1.099  1.00  0.00    -0.646 OA
BRANCH  23  25
HETATM   25  O   UNL     1      -6.060  -2.161  -0.844  1.00  0.00    -0.773 OA
HETATM   26  H   UNL     1      -6.399  -2.928  -1.327  1.00  0.00     0.167 HD
ENDBRANCH  23  25
ENDBRANCH  19  23
ENDBRANCH  16  17
ENDBRANCH   1  16
BRANCH   1  27
HETATM   27  B   UNL     1      -0.683   2.473  -0.107  1.00  0.00     0.515 B 
BRANCH  27  28
HETATM   28  O   UNL     1       0.172   3.600   0.014  1.00  0.00    -0.436 OA
HETATM   29  H   UNL     1      -0.286   4.450  -0.047  1.00  0.00     0.184 HD
ENDBRANCH  27  28
BRANCH  27  30
HETATM   30  O   UNL     1      -2.077   2.657  -0.299  1.00  0.00    -0.436 OA
HETATM   31  H   UNL     1      -2.351   3.584  -0.334  1.00  0.00     0.184 HD
ENDBRANCH  27  30
ENDBRANCH   1  27
TORSDOF 11
