2UL
  -OEChem-07282321083D

 44 45  0     1  0  0  0  0  0999 V2000
    4.4190   -0.3500    1.3850 C   0  0  0  0  0  0  0  0  0  0  0  0
    4.8620   -1.5060    1.9990 C   0  0  0  0  0  0  0  0  0  0  0  0
    5.0620   -2.6530    1.2530 C   0  0  0  0  0  0  0  0  0  0  0  0
    4.8180   -2.6430   -0.1080 C   0  0  0  0  0  0  0  0  0  0  0  0
    4.3730   -1.4870   -0.7220 C   0  0  0  0  0  0  0  0  0  0  0  0
    4.1750   -0.3400    0.0240 C   0  0  0  0  0  0  0  0  0  0  0  0
    3.6910    0.9200   -0.6460 C   0  0  1  0  0  0  0  0  0  0  0  0
    4.3580    1.0710   -1.9460 N   0  0  0  0  0  0  0  0  0  0  0  0
    2.2010    0.8390   -0.8510 C   0  0  0  0  0  0  0  0  0  0  0  0
    1.7540    0.5380   -1.9380 O   0  0  0  0  0  0  0  0  0  0  0  0
    1.3640    1.1020    0.1720 N   0  0  0  0  0  0  0  0  0  0  0  0
   -0.0860    1.0230   -0.0280 C   0  0  2  0  0  0  0  0  0  0  0  0
   -0.6830    2.4730   -0.1070 B   0  0  0  0  0  0  0  0  0  0  0  0
    0.1720    3.6000    0.0140 O   0  0  0  0  0  0  0  0  0  0  0  0
   -2.0770    2.6570   -0.2990 O   0  0  0  0  0  0  0  0  0  0  0  0
   -0.7220    0.2720    1.1430 C   0  0  0  0  0  0  0  0  0  0  0  0
   -2.2130    0.1910    0.9370 C   0  0  0  0  0  0  0  0  0  0  0  0
   -2.7560   -0.8780    0.2560 C   0  0  0  0  0  0  0  0  0  0  0  0
   -3.0340    1.1870    1.4370 C   0  0  0  0  0  0  0  0  0  0  0  0
   -4.4030    1.1200    1.2530 C   0  0  0  0  0  0  0  0  0  0  0  0
   -4.9600    0.0590    0.5690 C   0  0  0  0  0  0  0  0  0  0  0  0
   -4.1380   -0.9520    0.0660 C   0  0  0  0  0  0  0  0  0  0  0  0
   -4.7270   -2.0930   -0.6630 C   0  0  0  0  0  0  0  0  0  0  0  0
   -4.0090   -2.9710   -1.0990 O   0  0  0  0  0  0  0  0  0  0  0  0
   -6.0600   -2.1610   -0.8440 O   0  0  0  0  0  0  0  0  0  0  0  0
    4.2580    0.5440    1.9690 H   0  0  0  0  0  0  0  0  0  0  0  0
    5.0530   -1.5140    3.0620 H   0  0  0  0  0  0  0  0  0  0  0  0
    5.4090   -3.5560    1.7330 H   0  0  0  0  0  0  0  0  0  0  0  0
    4.9740   -3.5380   -0.6910 H   0  0  0  0  0  0  0  0  0  0  0  0
    4.1830   -1.4790   -1.7850 H   0  0  0  0  0  0  0  0  0  0  0  0
    3.9250    1.7790   -0.0160 H   0  0  0  0  0  0  0  0  0  0  0  0
    4.1560    0.2870   -2.5480 H   0  0  0  0  0  0  0  0  0  0  0  0
    4.0990    1.9410   -2.3860 H   0  0  0  0  0  0  0  0  0  0  0  0
    1.7210    1.3430    1.0410 H   0  0  0  0  0  0  0  0  0  0  0  0
   -0.2960    0.4930   -0.9570 H   0  0  0  0  0  0  0  0  0  0  0  0
   -0.2860    4.4500   -0.0470 H   0  0  0  0  0  0  0  0  0  0  0  0
   -2.3510    3.5840   -0.3340 H   0  0  0  0  0  0  0  0  0  0  0  0
   -0.3080   -0.7340    1.1980 H   0  0  0  0  0  0  0  0  0  0  0  0
   -0.5120    0.8030    2.0720 H   0  0  0  0  0  0  0  0  0  0  0  0
   -2.1150   -1.6560   -0.1300 H   0  0  0  0  0  0  0  0  0  0  0  0
   -2.6030    2.0200    1.9730 H   0  0  0  0  0  0  0  0  0  0  0  0
   -5.0380    1.9000    1.6450 H   0  0  0  0  0  0  0  0  0  0  0  0
   -6.0290    0.0080    0.4260 H   0  0  0  0  0  0  0  0  0  0  0  0
   -6.3990   -2.9280   -1.3270 H   0  0  0  0  0  0  0  0  0  0  0  0
  1  2  2  0  0  0  0
  1  6  1  0  0  0  0
  2  3  1  0  0  0  0
  3  4  2  0  0  0  0
  4  5  1  0  0  0  0
  5  6  2  0  0  0  0
  6  7  1  0  0  0  0
  7  8  1  0  0  0  0
  7  9  1  0  0  0  0
  9 10  2  0  0  0  0
  9 11  1  0  0  0  0
 11 12  1  0  0  0  0
 12 16  1  0  0  0  0
 13 14  1  0  0  0  0
 13 15  1  0  0  0  0
 16 17  1  0  0  0  0
 17 18  2  0  0  0  0
 17 19  1  0  0  0  0
 18 22  1  0  0  0  0
 19 20  2  0  0  0  0
 20 21  1  0  0  0  0
 21 22  2  0  0  0  0
 22 23  1  0  0  0  0
 23 24  2  0  0  0  0
 23 25  1  0  0  0  0
 12 13  1  0  0  0  0
  1 26  1  0  0  0  0
  2 27  1  0  0  0  0
  3 28  1  0  0  0  0
  4 29  1  0  0  0  0
  5 30  1  0  0  0  0
  7 31  1  0  0  0  0
  8 32  1  0  0  0  0
  8 33  1  0  0  0  0
 11 34  1  0  0  0  0
 12 35  1  0  0  0  0
 14 36  1  0  0  0  0
 15 37  1  0  0  0  0
 16 38  1  0  0  0  0
 16 39  1  0  0  0  0
 18 40  1  0  0  0  0
 19 41  1  0  0  0  0
 20 42  1  0  0  0  0
 21 43  1  0  0  0  0
 25 44  1  0  0  0  0
M  END
> <OPENEYE_ISO_SMILES>
B([C@H](Cc1cccc(c1)C(=O)O)NC(=O)[C@@H](c2ccccc2)N)(O)O

> <OPENEYE_INCHI>
InChI=1S/C17H19BN2O5/c19-15(12-6-2-1-3-7-12)16(21)20-14(18(24)25)10-11-5-4-8-13(9-11)17(22)23/h1-9,14-15,24-25H,10,19H2,(H,20,21)(H,22,23)/t14-,15+/m0/s1

> <OPENEYE_INCHIKEY>
WMZXFYUXEUIIHA-LSDHHAIUSA-N

> <FORMULA>
C17H19BN2O5

$$$$
