33V
  -OEChem-07282321083D

 44 46  0     1  0  0  0  0  0999 V2000
   -0.6810   -1.0260    0.4430 S   0  0  0  0  0  0  0  0  0  0  0  0
   -2.4050   -1.0790    1.0320 C   0  0  0  0  0  0  0  0  0  0  0  0
   -3.3560   -0.7130   -0.0830 C   0  0  2  0  0  0  0  0  0  0  0  0
   -3.6840    0.7180    0.0520 N   0  0  0  0  0  0  0  0  0  0  0  0
   -2.8280    1.5890   -0.6090 C   0  0  0  0  0  0  0  0  0  0  0  0
   -1.4050    1.5920   -0.0250 C   0  0  2  0  0  0  0  0  0  0  0  0
   -0.7180    2.9180   -0.3570 C   0  0  0  0  0  0  0  0  0  0  0  0
   -1.4420    3.9930    0.2450 O   0  0  0  0  0  0  0  0  0  0  0  0
   -4.6120   -1.5380    0.0270 C   0  0  0  0  0  0  0  0  0  0  0  0
   -5.6060   -1.0620    0.5220 O   0  0  0  0  0  0  0  0  0  0  0  0
   -4.6270   -2.8020   -0.4260 O   0  0  0  0  0  0  0  0  0  0  0  0
   -0.6190    0.4520   -0.6270 C   0  0  1  0  0  0  0  0  0  0  0  0
    0.8380    0.8850   -0.8030 C   0  0  2  0  0  0  0  0  0  0  0  0
    1.6190   -0.1970   -1.4580 N   0  0  0  0  0  0  0  0  0  0  0  0
    2.9370   -0.1470   -0.8330 N   0  0  1  0  0  0  0  0  0  0  0  0
    2.6510    0.0810    0.6040 C   0  0  2  0  0  0  0  0  0  0  0  0
    1.5010    1.1020    0.5770 C   0  0  0  0  0  0  0  0  0  0  0  0
    3.7190   -1.3730   -0.9990 C   0  0  0  0  0  0  0  0  0  0  0  0
    5.3540   -1.0990   -0.2470 S   0  0  0  0  0  0  0  0  0  0  0  0
    4.9270   -0.4920    1.4130 C   0  0  0  0  0  0  0  0  0  0  0  0
    3.8930    0.6360    1.2860 C   0  0  0  0  0  0  0  0  0  0  0  0
   -2.6340   -2.0840    1.3860 H   0  0  0  0  0  0  0  0  0  0  0  0
   -2.5270   -0.3710    1.8530 H   0  0  0  0  0  0  0  0  0  0  0  0
   -2.8800   -0.8920   -1.0470 H   0  0  0  0  0  0  0  0  0  0  0  0
   -3.7840    0.9760    1.0220 H   0  0  0  0  0  0  0  0  0  0  0  0
   -2.7760    1.3000   -1.6590 H   0  0  0  0  0  0  0  0  0  0  0  0
   -3.2360    2.5980   -0.5450 H   0  0  0  0  0  0  0  0  0  0  0  0
   -1.4550    1.4680    1.0570 H   0  0  0  0  0  0  0  0  0  0  0  0
    0.3010    2.9060    0.0280 H   0  0  0  0  0  0  0  0  0  0  0  0
   -0.6960    3.0550   -1.4380 H   0  0  0  0  0  0  0  0  0  0  0  0
   -1.0630    4.8660    0.0760 H   0  0  0  0  0  0  0  0  0  0  0  0
   -5.4550   -3.2910   -0.3330 H   0  0  0  0  0  0  0  0  0  0  0  0
   -1.0390    0.2050   -1.6020 H   0  0  0  0  0  0  0  0  0  0  0  0
    0.8900    1.7990   -1.3940 H   0  0  0  0  0  0  0  0  0  0  0  0
    1.6840   -0.0430   -2.4530 H   0  0  0  0  0  0  0  0  0  0  0  0
    2.3260   -0.8450    1.0790 H   0  0  0  0  0  0  0  0  0  0  0  0
    1.8890    2.1180    0.6590 H   0  0  0  0  0  0  0  0  0  0  0  0
    0.7900    0.8990    1.3780 H   0  0  0  0  0  0  0  0  0  0  0  0
    3.2170   -2.2010   -0.4990 H   0  0  0  0  0  0  0  0  0  0  0  0
    3.8330   -1.5970   -2.0600 H   0  0  0  0  0  0  0  0  0  0  0  0
    4.5070   -1.3070    2.0010 H   0  0  0  0  0  0  0  0  0  0  0  0
    5.8240   -0.1120    1.9030 H   0  0  0  0  0  0  0  0  0  0  0  0
    4.3080    1.4470    0.6870 H   0  0  0  0  0  0  0  0  0  0  0  0
    3.6320    1.0070    2.2770 H   0  0  0  0  0  0  0  0  0  0  0  0
  9 10  2  0  0  0  0
  4  5  1  0  0  0  0
  5  6  1  0  0  0  0
  3  4  1  0  0  0  0
  6  7  1  0  0  0  0
  7  8  1  0  0  0  0
  6 12  1  0  0  0  0
  3  9  1  0  0  0  0
  9 11  1  0  0  0  0
  2  3  1  0  0  0  0
 15 18  1  0  0  0  0
 18 19  1  0  0  0  0
 14 15  1  0  0  0  0
 13 14  1  0  0  0  0
 15 16  1  0  0  0  0
 19 20  1  0  0  0  0
 12 13  1  0  0  0  0
  1 12  1  0  0  0  0
 13 17  1  0  0  0  0
  1  2  1  0  0  0  0
 16 17  1  0  0  0  0
 16 21  1  0  0  0  0
 20 21  1  0  0  0  0
  2 22  1  0  0  0  0
  2 23  1  0  0  0  0
  3 24  1  0  0  0  0
  4 25  1  0  0  0  0
  5 26  1  0  0  0  0
  5 27  1  0  0  0  0
  6 28  1  0  0  0  0
  7 29  1  0  0  0  0
  7 30  1  0  0  0  0
  8 31  1  0  0  0  0
 11 32  1  0  0  0  0
 12 33  1  0  0  0  0
 13 34  1  0  0  0  0
 14 35  1  0  0  0  0
 16 36  1  0  0  0  0
 17 37  1  0  0  0  0
 17 38  1  0  0  0  0
 18 39  1  0  0  0  0
 18 40  1  0  0  0  0
 20 41  1  0  0  0  0
 20 42  1  0  0  0  0
 21 43  1  0  0  0  0
 21 44  1  0  0  0  0
M  END
> <OPENEYE_ISO_SMILES>
C1CSC[N@@]2[C@@H]1C[C@@H](N2)[C@@H]3[C@H](CN[C@@H](CS3)C(=O)O)CO

> <OPENEYE_INCHI>
InChI=1S/C13H23N3O3S2/c17-5-8-4-14-11(13(18)19)6-21-12(8)10-3-9-1-2-20-7-16(9)15-10/h8-12,14-15,17H,1-7H2,(H,18,19)/t8-,9+,10-,11+,12+/m1/s1

> <OPENEYE_INCHIKEY>
BYDOKGBTKWANQM-LVEVGFFFSA-N

> <FORMULA>
C13H23N3O3S2

$$$$
