REMARK  5 active torsions:
REMARK  status: ('A' for Active; 'I' for Inactive)
REMARK    1  A    between atoms: C_3  and  C_5 
REMARK    2  A    between atoms: C_5  and  O_7 
REMARK    3  A    between atoms: C_8  and  C_9 
REMARK    4  A    between atoms: C_22  and  C_23 
REMARK    5  A    between atoms: C_23  and  O_24 
ROOT
HETATM    1  S   UNK A   1      -0.681  -1.026   0.443  1.00  0.00    -0.159 SA
HETATM    2  C   UNK A   1      -2.405  -1.079   1.032  1.00  0.00     0.121 C 
HETATM    3  C   UNK A   1      -3.356  -0.713  -0.083  1.00  0.00     0.326 C 
HETATM    4  N   UNK A   1      -3.684   0.718   0.052  1.00  0.00     0.099 N 
HETATM    5  C   UNK A   1      -0.619   0.452  -0.627  1.00  0.00     0.074 C 
HETATM    6  H   UNK A   1      -3.784   0.976   1.022  1.00  0.00     0.317 HD
HETATM    7  C   UNK A   0      -2.828   1.589  -0.609  1.00  0.00     0.278 C 
HETATM    8  C   UNK A   0      -1.405   1.592  -0.025  1.00  0.00     0.053 C 
ENDROOT
BRANCH   5   9
HETATM    9  C   UNK A   1       0.838   0.885  -0.803  1.00  0.00     0.087 C 
HETATM   10  N   UNK A   1       1.619  -0.197  -1.458  1.00  0.00    -0.252 NA
HETATM   11  N   UNK A   1       2.937  -0.147  -0.833  1.00  0.00    -0.238 NA
HETATM   12  H   UNK A   1       1.684  -0.043  -2.453  1.00  0.00     0.141 HD
HETATM   13  C   UNK A   1       3.719  -1.373  -0.999  1.00  0.00     0.181 C 
HETATM   14  C   UNK A   1       2.651   0.081   0.604  1.00  0.00     0.077 C 
HETATM   15  S   UNK A   1       5.354  -1.099  -0.247  1.00  0.00    -0.153 SA
HETATM   16  C   UNK A   1       4.927  -0.492   1.413  1.00  0.00     0.077 C 
HETATM   17  C   UNK A   1       3.893   0.636   1.286  1.00  0.00     0.031 C 
HETATM   18  C   UNK A   1       1.501   1.102   0.577  1.00  0.00     0.043 C 
ENDBRANCH   5   9
BRANCH   8  19
HETATM   19  C   UNK A   0      -0.718   2.918  -0.357  1.00  0.00     0.171 C 
BRANCH  19  20
HETATM   20  O   UNK A   0      -1.442   3.993   0.245  1.00  0.00    -0.400 OA
HETATM   21  H   UNK A   0      -1.063   4.866   0.076  1.00  0.00     0.209 HD
ENDBRANCH  19  20
ENDBRANCH   8  19
BRANCH   3  22
HETATM   22  C   UNK A   1      -4.612  -1.538   0.027  1.00  0.00     0.175 C 
HETATM   23  O   UNK A   1      -5.606  -1.062   0.522  1.00  0.00    -0.648 OA
BRANCH  22  24
HETATM   24  O   UNK A   1      -4.627  -2.802  -0.426  1.00  0.00    -0.775 OA
HETATM   25  H   UNK A   1      -5.455  -3.291  -0.333  1.00  0.00     0.167 HD
ENDBRANCH  22  24
ENDBRANCH   3  22
TORSDOF 5
