3GE
  -OEChem-07282321083D

 35 34  0     1  0  0  0  0  0999 V2000
    9.1870   34.1860    6.2020 O   0  0  0  0  0  0  0  0  0  0  0  0
    8.3060   33.8400    5.4150 C   0  0  0  0  0  0  0  0  0  0  0  0
    7.6660   34.9380    4.6740 C   0  0  0  0  0  0  0  0  0  0  0  0
    6.4330   34.6170    3.8710 C   0  0  0  0  0  0  0  0  0  0  0  0
    5.3840   34.7360    4.8190 O   0  0  0  0  0  0  0  0  0  0  0  0
    8.1470   36.2020    4.7600 C   0  0  0  0  0  0  0  0  0  0  0  0
    7.6180   37.1780    4.1470 N   0  0  0  0  0  0  0  0  0  0  0  0
    8.1390   38.5450    4.2500 C   0  0  1  0  0  0  0  0  0  0  0  0
    9.4180   38.7420    3.4710 C   0  0  0  0  0  0  0  0  0  0  0  0
    9.6480   38.0150    2.4810 O   0  0  0  0  0  0  0  0  0  0  0  0
   10.2150   39.6290    3.8560 O   0  0  0  0  0  0  0  0  0  0  0  0
    7.0680   39.6510    4.0060 C   0  0  0  0  0  0  0  0  0  0  0  0
    7.4550   40.6260    2.9010 C   0  0  0  0  0  0  0  0  0  0  0  0
    6.9720   40.4200    5.3150 C   0  0  0  0  0  0  0  0  0  0  0  0
    5.5340   39.0910    3.6240 S   0  4  0  0  0  0  0  0  0  0  0  0
    5.0650   38.1570    4.6100 O   0  0  0  0  0  0  0  0  0  0  0  0
    5.5150   38.4610    2.3260 O   0  0  0  0  0  0  0  0  0  0  0  0
    7.5260   33.3140    5.9860 H   0  0  0  0  0  0  0  0  0  0  0  0
    8.3040   34.7390    3.8000 H   0  0  0  0  0  0  0  0  0  0  0  0
    6.3020   35.3340    3.0470 H   0  0  0  0  0  0  0  0  0  0  0  0
    6.4830   33.5960    3.4650 H   0  0  0  0  0  0  0  0  0  0  0  0
    4.5530   34.5490    4.3980 H   0  0  0  0  0  0  0  0  0  0  0  0
    9.1910   36.1550    4.4160 H   0  0  0  0  0  0  0  0  0  0  0  0
    8.4270   38.6690    5.3040 H   0  0  0  0  0  0  0  0  0  0  0  0
   10.9760   39.6400    3.2870 H   0  0  0  0  0  0  0  0  0  0  0  0
    8.4590   41.0280    3.1010 H   0  0  0  0  0  0  0  0  0  0  0  0
    7.4550   40.1020    1.9340 H   0  0  0  0  0  0  0  0  0  0  0  0
    6.7290   41.4520    2.8700 H   0  0  0  0  0  0  0  0  0  0  0  0
    6.6930   39.7310    6.1260 H   0  0  0  0  0  0  0  0  0  0  0  0
    7.9450   40.8790    5.5430 H   0  0  0  0  0  0  0  0  0  0  0  0
    6.2080   41.2060    5.2230 H   0  0  0  0  0  0  0  0  0  0  0  0
    9.5440   33.4200    6.6350 H   0  0  0  0  0  0  0  0  0  0  0  0
    8.7530   33.1510    4.6840 H   0  0  0  0  0  0  0  0  0  0  0  0
    8.1250   36.4650    5.8280 H   0  0  0  0  0  0  0  0  0  0  0  0
    6.6680   37.2180    4.4560 H   0  0  0  0  0  0  0  0  0  0  0  0
 15 17  2  0  0  0  0
  9 10  2  0  0  0  0
 12 13  1  0  0  0  0
  9 11  1  0  0  0  0
  8  9  1  0  0  0  0
 12 15  1  0  0  0  0
 15 16  2  0  0  0  0
  3  4  1  0  0  0  0
  4  5  1  0  0  0  0
  8 12  1  0  0  0  0
 12 14  1  0  0  0  0
  7  8  1  0  0  0  0
  6  7  1  0  0  0  0
  3  6  1  0  0  0  0
  2  3  1  0  0  0  0
  1  2  1  0  0  0  0
  2 18  1  0  0  0  0
  3 19  1  0  0  0  0
  4 20  1  0  0  0  0
  4 21  1  0  0  0  0
  5 22  1  0  0  0  0
  6 23  1  0  0  0  0
  8 24  1  0  0  0  0
 11 25  1  0  0  0  0
 13 26  1  0  0  0  0
 13 27  1  0  0  0  0
 13 28  1  0  0  0  0
 14 29  1  0  0  0  0
 14 30  1  0  0  0  0
 14 31  1  0  0  0  0
  1 32  1  0  0  0  0
  2 33  1  0  0  0  0
  6 34  1  0  0  0  0
  7 35  1  0  0  0  0
M  RAD  1  15   2
M  END
> <OPENEYE_ISO_SMILES>
CC(C)([C@H](C(=O)O)NCC(CO)CO)[S](=O)=O

> <OPENEYE_INCHI>
InChI=1S/C9H18NO6S/c1-9(2,17(15)16)7(8(13)14)10-3-6(4-11)5-12/h6-7,10-12H,3-5H2,1-2H3,(H,13,14)/t7-/m0/s1

> <OPENEYE_INCHIKEY>
JZDISZICCOXTRF-ZETCQYMHSA-N

> <FORMULA>
C9H18NO6S

$$$$
