3P7
  -OEChem-07282321083D

 47 48  0     1  0  0  0  0  0999 V2000
   -0.8120    3.1060    0.0190 C   0  0  0  0  0  0  0  0  0  0  0  0
   -0.8660    3.3080    1.2090 O   0  0  0  0  0  0  0  0  0  0  0  0
   -1.2730    1.7860   -0.5430 C   0  0  1  0  0  0  0  0  0  0  0  0
   -0.1610    1.1380   -1.2430 N   0  0  0  0  0  0  0  0  0  0  0  0
   -1.7520    0.8860    0.5980 C   0  0  1  0  0  0  0  0  0  0  0  0
   -2.8970    1.4770    1.2070 O   0  0  0  0  0  0  0  0  0  0  0  0
   -3.5050    0.6510    2.2120 C   0  0  0  0  0  0  0  0  0  0  0  0
   -3.9480   -0.6230    1.5160 C   0  0  0  0  0  0  0  0  0  0  0  0
   -3.0440   -1.1590    0.4720 C   0  0  0  0  0  0  0  0  0  0  0  0
   -3.2790   -2.5100   -0.1040 C   0  0  0  0  0  0  0  0  0  0  0  0
   -2.0450   -0.4390    0.0650 N   0  0  0  0  0  0  0  0  0  0  0  0
   -5.0900   -1.2280    1.8280 C   0  0  0  0  0  0  0  0  0  0  0  0
    0.9680    0.8310   -0.5750 C   0  0  0  0  0  0  0  0  0  0  0  0
    1.0640    1.0910    0.6060 O   0  0  0  0  0  0  0  0  0  0  0  0
    2.1120    0.1650   -1.2950 C   0  0  1  0  0  0  0  0  0  0  0  0
    3.2460   -0.0680   -0.3290 C   0  0  0  0  0  0  0  0  0  0  0  0
    4.4810    0.5070   -0.5630 C   0  0  0  0  0  0  0  0  0  0  0  0
    5.5220    0.2950    0.3200 C   0  0  0  0  0  0  0  0  0  0  0  0
    5.3260   -0.4970    1.4420 C   0  0  0  0  0  0  0  0  0  0  0  0
    6.3480   -0.7070    2.3130 O   0  0  0  0  0  0  0  0  0  0  0  0
    4.0860   -1.0730    1.6750 C   0  0  0  0  0  0  0  0  0  0  0  0
    3.0470   -0.8530    0.7910 C   0  0  0  0  0  0  0  0  0  0  0  0
    1.6510   -1.1550   -1.8570 C   0  0  0  0  0  0  0  0  0  0  0  0
    0.5110   -1.5180   -1.6900 O   0  0  0  0  0  0  0  0  0  0  0  0
    2.5070   -1.9280   -2.5430 O   0  0  0  0  0  0  0  0  0  0  0  0
   -2.3480    2.0070   -1.4580 O   0  0  0  0  0  0  0  0  0  0  0  0
   -2.0010    2.8310   -2.5740 C   0  0  0  0  0  0  0  0  0  0  0  0
   -4.1460   -3.2240    0.3570 O   0  0  0  0  0  0  0  0  0  0  0  0
   -2.5320   -2.9410   -1.1370 O   0  0  0  0  0  0  0  0  0  0  0  0
   -0.2380    0.9310   -2.1870 H   0  0  0  0  0  0  0  0  0  0  0  0
   -0.9580    0.8010    1.3400 H   0  0  0  0  0  0  0  0  0  0  0  0
   -2.7810    0.4170    2.9920 H   0  0  0  0  0  0  0  0  0  0  0  0
   -4.3670    1.1610    2.6430 H   0  0  0  0  0  0  0  0  0  0  0  0
   -5.7640   -0.7760    2.5410 H   0  0  0  0  0  0  0  0  0  0  0  0
   -5.3440   -2.1720    1.3690 H   0  0  0  0  0  0  0  0  0  0  0  0
    2.4530    0.8070   -2.1070 H   0  0  0  0  0  0  0  0  0  0  0  0
    4.6320    1.1230   -1.4370 H   0  0  0  0  0  0  0  0  0  0  0  0
    6.4860    0.7440    0.1360 H   0  0  0  0  0  0  0  0  0  0  0  0
    6.3990   -0.0550    3.0250 H   0  0  0  0  0  0  0  0  0  0  0  0
    3.9320   -1.6900    2.5480 H   0  0  0  0  0  0  0  0  0  0  0  0
    2.0810   -1.3010    0.9720 H   0  0  0  0  0  0  0  0  0  0  0  0
    2.1660   -2.7660   -2.8840 H   0  0  0  0  0  0  0  0  0  0  0  0
   -1.5950    3.7760   -2.2150 H   0  0  0  0  0  0  0  0  0  0  0  0
   -1.2540    2.3220   -3.1830 H   0  0  0  0  0  0  0  0  0  0  0  0
   -2.8910    3.0220   -3.1740 H   0  0  0  0  0  0  0  0  0  0  0  0
   -2.7220   -3.8260   -1.4770 H   0  0  0  0  0  0  0  0  0  0  0  0
   -0.4380    3.8740   -0.6420 H   0  0  0  0  0  0  0  0  0  0  0  0
 10 28  2  0  0  0  0
 10 29  1  0  0  0  0
  9 10  1  0  0  0  0
  8 12  2  0  0  0  0
  8  9  1  0  0  0  0
  9 11  2  0  0  0  0
  7  8  1  0  0  0  0
  5 11  1  0  0  0  0
  6  7  1  0  0  0  0
  5  6  1  0  0  0  0
  3  5  1  0  0  0  0
  1  2  2  0  0  0  0
  1  3  1  0  0  0  0
  3 26  1  0  0  0  0
  3  4  1  0  0  0  0
 26 27  1  0  0  0  0
  4 13  1  0  0  0  0
 19 20  1  0  0  0  0
 18 19  2  0  0  0  0
 17 18  1  0  0  0  0
 19 21  1  0  0  0  0
 13 14  2  0  0  0  0
 13 15  1  0  0  0  0
 16 17  2  0  0  0  0
 21 22  2  0  0  0  0
 16 22  1  0  0  0  0
 15 16  1  0  0  0  0
 15 23  1  0  0  0  0
 23 24  2  0  0  0  0
 23 25  1  0  0  0  0
  4 30  1  0  0  0  0
  5 31  1  0  0  0  0
  7 32  1  0  0  0  0
  7 33  1  0  0  0  0
 12 34  1  0  0  0  0
 12 35  1  0  0  0  0
 15 36  1  0  0  0  0
 17 37  1  0  0  0  0
 18 38  1  0  0  0  0
 20 39  1  0  0  0  0
 21 40  1  0  0  0  0
 22 41  1  0  0  0  0
 25 42  1  0  0  0  0
 27 43  1  0  0  0  0
 27 44  1  0  0  0  0
 27 45  1  0  0  0  0
 29 46  1  0  0  0  0
  1 47  1  0  0  0  0
M  END
> <OPENEYE_ISO_SMILES>
CO[C@@](C=O)([C@@H]1N=C(C(=C)CO1)C(=O)O)NC(=O)[C@@H](c2ccc(cc2)O)C(=O)O

> <OPENEYE_INCHI>
InChI=1S/C18H18N2O9/c1-9-7-29-17(19-13(9)16(26)27)18(8-21,28-2)20-14(23)12(15(24)25)10-3-5-11(22)6-4-10/h3-6,8,12,17,22H,1,7H2,2H3,(H,20,23)(H,24,25)(H,26,27)/t12-,17-,18+/m1/s1

> <OPENEYE_INCHIKEY>
GOYCBKVVHGALFQ-PJSAGSTRSA-N

> <FORMULA>
C18H18N2O9

$$$$
