3S2
  -OEChem-07282321083D

 43 43  0     1  0  0  0  0  0999 V2000
   -5.9650    0.2830    0.0120 C   0  0  0  0  0  0  0  0  0  0  0  0
   -4.6030   -0.4140    0.0150 C   0  0  0  0  0  0  0  0  0  0  0  0
   -7.0710   -0.7610   -0.1580 C   0  0  0  0  0  0  0  0  0  0  0  0
   -3.4970    0.6290    0.1850 C   0  0  0  0  0  0  0  0  0  0  0  0
    1.6270    1.7340   -0.6500 C   0  0  0  0  0  0  0  0  0  0  0  0
    1.4380    0.7400    0.4670 C   0  0  2  0  0  0  0  0  0  0  0  0
   -8.3790   -0.0920   -0.1610 N   0  0  0  0  0  0  0  0  0  0  0  0
   -9.4680   -1.0650   -0.3230 C   0  0  0  0  0  0  0  0  0  0  0  0
    1.8060   -1.5050   -0.3610 C   0  0  0  0  0  0  0  0  0  0  0  0
    0.3580   -1.3770    0.1900 C   0  0  0  0  0  0  0  0  0  0  0  0
    2.5260   -0.3520    0.3870 C   0  0  1  0  0  0  0  0  0  0  0  0
   -1.0650    0.6870    0.3260 C   0  0  0  0  0  0  0  0  0  0  0  0
   -2.1930   -0.0380    0.1880 N   0  0  0  0  0  0  0  0  0  0  0  0
    3.6800    0.1220   -0.3800 N   0  0  0  0  0  0  0  0  0  0  0  0
    0.1350    0.0730    0.3280 N   0  0  0  0  0  0  0  0  0  0  0  0
    5.3520   -0.3470    1.3740 O   0  0  0  0  0  0  0  0  0  0  0  0
    1.9080    2.8810   -0.3960 O   0  0  0  0  0  0  0  0  0  0  0  0
   -1.1300    1.8950    0.4480 O   0  0  0  0  0  0  0  0  0  0  0  0
    5.2000   -1.9370   -0.3600 O   0  0  0  0  0  0  0  0  0  0  0  0
    6.0780    0.1660   -0.9620 O   0  0  0  0  0  0  0  0  0  0  0  0
    5.1950   -0.4500   -0.0340 S   0  0  0  0  0  0  0  0  0  0  0  0
   -6.1050    0.8110    0.9550 H   0  0  0  0  0  0  0  0  0  0  0  0
   -6.0070    0.9940   -0.8130 H   0  0  0  0  0  0  0  0  0  0  0  0
   -4.5610   -1.1260    0.8390 H   0  0  0  0  0  0  0  0  0  0  0  0
   -4.4630   -0.9420   -0.9290 H   0  0  0  0  0  0  0  0  0  0  0  0
   -6.9310   -1.2890   -1.1020 H   0  0  0  0  0  0  0  0  0  0  0  0
   -7.0290   -1.4720    0.6660 H   0  0  0  0  0  0  0  0  0  0  0  0
   -3.5390    1.3410   -0.6400 H   0  0  0  0  0  0  0  0  0  0  0  0
   -3.6370    1.1570    1.1280 H   0  0  0  0  0  0  0  0  0  0  0  0
    1.5100    1.4210   -1.6770 H   0  0  0  0  0  0  0  0  0  0  0  0
    1.4930    1.2490    1.4290 H   0  0  0  0  0  0  0  0  0  0  0  0
   -8.5060    0.4570    0.6750 H   0  0  0  0  0  0  0  0  0  0  0  0
   -9.3440   -1.5950   -1.2670 H   0  0  0  0  0  0  0  0  0  0  0  0
   -9.4420   -1.7790    0.5000 H   0  0  0  0  0  0  0  0  0  0  0  0
  -10.4250   -0.5430   -0.3220 H   0  0  0  0  0  0  0  0  0  0  0  0
    2.2390   -2.4710   -0.1010 H   0  0  0  0  0  0  0  0  0  0  0  0
    1.8290   -1.3450   -1.4390 H   0  0  0  0  0  0  0  0  0  0  0  0
   -0.3550   -1.8080   -0.5130 H   0  0  0  0  0  0  0  0  0  0  0  0
    0.2770   -1.8660    1.1610 H   0  0  0  0  0  0  0  0  0  0  0  0
    2.8280   -0.6690    1.3850 H   0  0  0  0  0  0  0  0  0  0  0  0
   -2.1410   -1.0020    0.0900 H   0  0  0  0  0  0  0  0  0  0  0  0
    3.5570    0.7710   -1.0900 H   0  0  0  0  0  0  0  0  0  0  0  0
    6.0470   -2.3740   -0.1920 H   0  0  0  0  0  0  0  0  0  0  0  0
  1  2  1  0  0  0  0
  1  3  1  0  0  0  0
  1 22  1  0  0  0  0
  1 23  1  0  0  0  0
  2  4  1  0  0  0  0
  2 24  1  0  0  0  0
  2 25  1  0  0  0  0
  3  7  1  0  0  0  0
  3 26  1  0  0  0  0
  3 27  1  0  0  0  0
  4 13  1  0  0  0  0
  4 28  1  0  0  0  0
  4 29  1  0  0  0  0
  5 17  2  0  0  0  0
  5  6  1  0  0  0  0
  5 30  1  0  0  0  0
  6 15  1  0  0  0  0
  6 11  1  0  0  0  0
  6 31  1  0  0  0  0
  7  8  1  0  0  0  0
  7 32  1  0  0  0  0
  8 33  1  0  0  0  0
  8 34  1  0  0  0  0
  8 35  1  0  0  0  0
  9 10  1  0  0  0  0
  9 11  1  0  0  0  0
  9 36  1  0  0  0  0
  9 37  1  0  0  0  0
 10 15  1  0  0  0  0
 10 38  1  0  0  0  0
 10 39  1  0  0  0  0
 11 14  1  0  0  0  0
 11 40  1  0  0  0  0
 12 13  1  0  0  0  0
 12 15  1  0  0  0  0
 12 18  2  0  0  0  0
 13 41  1  0  0  0  0
 14 21  1  0  0  0  0
 14 42  1  0  0  0  0
 16 21  2  0  0  0  0
 19 21  1  0  0  0  0
 19 43  1  0  0  0  0
 20 21  2  0  0  0  0
M  END
> <OPENEYE_ISO_SMILES>
CNCCCCNC(=O)N1CC[C@H]([C@H]1C=O)NS(=O)(=O)O

> <OPENEYE_INCHI>
InChI=1S/C11H22N4O5S/c1-12-5-2-3-6-13-11(17)15-7-4-9(10(15)8-16)14-21(18,19)20/h8-10,12,14H,2-7H2,1H3,(H,13,17)(H,18,19,20)/t9-,10-/m1/s1

> <OPENEYE_INCHIKEY>
KICDPLXBZKSLNF-NXEZZACHSA-N

> <FORMULA>
C11H22N4O5S

$$$$
