3VT
  -OEChem-07282321083D

 38 40  0     1  0  0  0  0  0999 V2000
    0.6580    1.3540   -0.7230 C   0  0  0  0  0  0  0  0  0  0  0  0
    1.4540    0.2600   -1.0230 C   0  0  0  0  0  0  0  0  0  0  0  0
    0.8810   -0.9980   -1.1580 C   0  0  0  0  0  0  0  0  0  0  0  0
   -1.7610    3.5760    0.0040 O   0  0  0  0  0  0  0  0  0  0  0  0
   -3.1710   -0.8130    0.7630 C   0  0  0  0  0  0  0  0  0  0  0  0
   -4.6700   -0.7810    0.9130 C   0  0  0  0  0  0  0  0  0  0  0  0
   -1.0940   -2.5350   -1.1350 C   0  0  0  0  0  0  0  0  0  0  0  0
    1.7480   -2.1860   -1.4850 C   0  0  0  0  0  0  0  0  0  0  0  0
    3.5960    0.1980   -0.1150 C   0  0  0  0  0  0  0  0  0  0  0  0
    4.9790    0.2430   -0.2590 C   0  0  0  0  0  0  0  0  0  0  0  0
    5.2240   -0.2390    1.9650 C   0  0  0  0  0  0  0  0  0  0  0  0
    3.8500   -0.2790    2.1120 C   0  0  0  0  0  0  0  0  0  0  0  0
   -5.2600   -1.4690    1.9030 O   0  0  0  0  0  0  0  0  0  0  0  0
   -5.3410   -0.1370    0.1420 O   0  0  0  0  0  0  0  0  0  0  0  0
   -2.7600    0.0470   -0.4330 C   0  0  1  0  0  0  0  0  0  0  0  0
   -3.0760    1.4130   -0.1690 O   0  0  0  0  0  0  0  0  0  0  0  0
   -1.8790    2.1770   -0.2140 B   0  0  0  0  0  0  0  0  0  0  0  0
   -1.2810   -0.0830   -0.6830 C   0  0  0  0  0  0  0  0  0  0  0  0
   -0.7110    1.1830   -0.5520 C   0  0  0  0  0  0  0  0  0  0  0  0
   -0.4820   -1.1650   -0.9930 C   0  0  0  0  0  0  0  0  0  0  0  0
    2.7940    0.4180   -1.1870 O   0  0  0  0  0  0  0  0  0  0  0  0
    3.0650   -0.0650    1.0700 N   0  0  0  0  0  0  0  0  0  0  0  0
    5.7570    0.0240    0.7840 N   0  0  0  0  0  0  0  0  0  0  0  0
    1.1000    2.3340   -0.6170 H   0  0  0  0  0  0  0  0  0  0  0  0
   -2.5990    4.0150    0.2000 H   0  0  0  0  0  0  0  0  0  0  0  0
   -2.7070   -0.4210    1.6680 H   0  0  0  0  0  0  0  0  0  0  0  0
   -2.8430   -1.8400    0.6020 H   0  0  0  0  0  0  0  0  0  0  0  0
   -1.3000   -2.7330   -2.1870 H   0  0  0  0  0  0  0  0  0  0  0  0
   -0.4000   -3.2840   -0.7530 H   0  0  0  0  0  0  0  0  0  0  0  0
   -2.0240   -2.5780   -0.5680 H   0  0  0  0  0  0  0  0  0  0  0  0
    2.0990   -2.6450   -0.5600 H   0  0  0  0  0  0  0  0  0  0  0  0
    1.1680   -2.9130   -2.0530 H   0  0  0  0  0  0  0  0  0  0  0  0
    2.6030   -1.8600   -2.0760 H   0  0  0  0  0  0  0  0  0  0  0  0
    5.4160    0.4570   -1.2240 H   0  0  0  0  0  0  0  0  0  0  0  0
    5.8620   -0.4140    2.8180 H   0  0  0  0  0  0  0  0  0  0  0  0
    3.4170   -0.4860    3.0800 H   0  0  0  0  0  0  0  0  0  0  0  0
   -6.2240   -1.4180    1.9590 H   0  0  0  0  0  0  0  0  0  0  0  0
   -3.2960   -0.2850   -1.3220 H   0  0  0  0  0  0  0  0  0  0  0  0
  6 14  2  0  0  0  0
 11 23  2  0  0  0  0
 10 23  1  0  0  0  0
  5  6  1  0  0  0  0
  6 13  1  0  0  0  0
 11 12  1  0  0  0  0
  4 17  1  0  0  0  0
  5 15  1  0  0  0  0
  9 10  2  0  0  0  0
 12 22  2  0  0  0  0
 16 17  1  0  0  0  0
 17 19  1  0  0  0  0
 15 16  1  0  0  0  0
 15 18  1  0  0  0  0
  9 22  1  0  0  0  0
  9 21  1  0  0  0  0
 18 19  2  0  0  0  0
  1 19  1  0  0  0  0
 18 20  1  0  0  0  0
  1  2  2  0  0  0  0
  7 20  1  0  0  0  0
  3 20  2  0  0  0  0
  2  3  1  0  0  0  0
  2 21  1  0  0  0  0
  3  8  1  0  0  0  0
  1 24  1  0  0  0  0
  4 25  1  0  0  0  0
  5 26  1  0  0  0  0
  5 27  1  0  0  0  0
  7 28  1  0  0  0  0
  7 29  1  0  0  0  0
  7 30  1  0  0  0  0
  8 31  1  0  0  0  0
  8 32  1  0  0  0  0
  8 33  1  0  0  0  0
 10 34  1  0  0  0  0
 11 35  1  0  0  0  0
 12 36  1  0  0  0  0
 13 37  1  0  0  0  0
 15 38  1  0  0  0  0
M  END
> <OPENEYE_ISO_SMILES>
B1(c2cc(c(c(c2[C@H](O1)CC(=O)O)C)C)Oc3cnccn3)O

> <OPENEYE_INCHI>
InChI=1S/C15H15BN2O5/c1-8-9(2)15-10(16(21)23-12(15)6-14(19)20)5-11(8)22-13-7-17-3-4-18-13/h3-5,7,12,21H,6H2,1-2H3,(H,19,20)/t12-/m1/s1

> <OPENEYE_INCHIKEY>
MTHDAYXINWUJNY-GFCCVEGCSA-N

> <FORMULA>
C15H15BN2O5

$$$$
