3VU
  -OEChem-07282321083D

 37 39  0     1  0  0  0  0  0999 V2000
    0.3120    1.3720   -0.8240 C   0  0  0  0  0  0  0  0  0  0  0  0
    1.0980    0.2810   -1.1600 C   0  0  0  0  0  0  0  0  0  0  0  0
    0.5220   -0.9770   -1.2810 C   0  0  0  0  0  0  0  0  0  0  0  0
   -2.0840    3.5830    0.0030 O   0  0  0  0  0  0  0  0  0  0  0  0
   -3.4400   -0.8260    0.7830 C   0  0  0  0  0  0  0  0  0  0  0  0
   -4.9300   -0.8030    1.0070 C   0  0  0  0  0  0  0  0  0  0  0  0
   -1.4460   -2.5190   -1.1950 C   0  0  0  0  0  0  0  0  0  0  0  0
    1.3800   -2.1620   -1.6470 C   0  0  0  0  0  0  0  0  0  0  0  0
    3.2710    0.2190   -0.3340 C   0  0  0  0  0  0  0  0  0  0  0  0
    5.1980   -0.0230    0.7850 C   0  0  0  0  0  0  0  0  0  0  0  0
   -5.4690   -1.5090    2.0130 O   0  0  0  0  0  0  0  0  0  0  0  0
   -5.6400   -0.1470    0.2810 O   0  0  0  0  0  0  0  0  0  0  0  0
   -3.0910    0.0550   -0.4170 C   0  0  1  0  0  0  0  0  0  0  0  0
   -3.4000    1.4190   -0.1350 O   0  0  0  0  0  0  0  0  0  0  0  0
   -2.2070    2.1860   -0.2190 B   0  0  0  0  0  0  0  0  0  0  0  0
   -1.6220   -0.0700   -0.7220 C   0  0  0  0  0  0  0  0  0  0  0  0
   -1.0500    1.1970   -0.6050 C   0  0  0  0  0  0  0  0  0  0  0  0
   -0.8330   -1.1490   -1.0670 C   0  0  0  0  0  0  0  0  0  0  0  0
    2.4310    0.4430   -1.3720 O   0  0  0  0  0  0  0  0  0  0  0  0
    2.8480   -0.1460    1.2960 S   0  0  0  0  0  0  0  0  0  0  0  0
    4.4560   -0.2600    1.8340 N   0  0  0  0  0  0  0  0  0  0  0  0
    4.5850    0.2290   -0.3530 N   0  0  0  0  0  0  0  0  0  0  0  0
    6.5900   -0.0350    0.8680 N   0  0  0  0  0  0  0  0  0  0  0  0
    0.7550    2.3520   -0.7290 H   0  0  0  0  0  0  0  0  0  0  0  0
   -2.9160    4.0200    0.2330 H   0  0  0  0  0  0  0  0  0  0  0  0
   -2.9330   -0.4490    1.6710 H   0  0  0  0  0  0  0  0  0  0  0  0
   -3.1180   -1.8490    0.5890 H   0  0  0  0  0  0  0  0  0  0  0  0
   -1.6890   -2.7120   -2.2400 H   0  0  0  0  0  0  0  0  0  0  0  0
   -0.7380   -3.2690   -0.8420 H   0  0  0  0  0  0  0  0  0  0  0  0
   -2.3560   -2.5670   -0.5960 H   0  0  0  0  0  0  0  0  0  0  0  0
    1.7650   -2.6250   -0.7390 H   0  0  0  0  0  0  0  0  0  0  0  0
    0.7810   -2.8870   -2.1980 H   0  0  0  0  0  0  0  0  0  0  0  0
    2.2120   -1.8300   -2.2680 H   0  0  0  0  0  0  0  0  0  0  0  0
   -6.4290   -1.4620    2.1180 H   0  0  0  0  0  0  0  0  0  0  0  0
   -3.6710   -0.2630   -1.2830 H   0  0  0  0  0  0  0  0  0  0  0  0
    7.1250    0.1440    0.0790 H   0  0  0  0  0  0  0  0  0  0  0  0
    7.0240   -0.2220    1.7150 H   0  0  0  0  0  0  0  0  0  0  0  0
  6 12  2  0  0  0  0
  5  6  1  0  0  0  0
  6 11  1  0  0  0  0
  4 15  1  0  0  0  0
 20 21  1  0  0  0  0
 10 21  2  0  0  0  0
  5 13  1  0  0  0  0
  9 20  1  0  0  0  0
 10 23  1  0  0  0  0
 10 22  1  0  0  0  0
 14 15  1  0  0  0  0
 15 17  1  0  0  0  0
 13 14  1  0  0  0  0
 13 16  1  0  0  0  0
 16 17  2  0  0  0  0
  1 17  1  0  0  0  0
 16 18  1  0  0  0  0
  9 22  2  0  0  0  0
  9 19  1  0  0  0  0
  1  2  2  0  0  0  0
  7 18  1  0  0  0  0
  3 18  2  0  0  0  0
  2  3  1  0  0  0  0
  2 19  1  0  0  0  0
  3  8  1  0  0  0  0
  1 24  1  0  0  0  0
  4 25  1  0  0  0  0
  5 26  1  0  0  0  0
  5 27  1  0  0  0  0
  7 28  1  0  0  0  0
  7 29  1  0  0  0  0
  7 30  1  0  0  0  0
  8 31  1  0  0  0  0
  8 32  1  0  0  0  0
  8 33  1  0  0  0  0
 11 34  1  0  0  0  0
 13 35  1  0  0  0  0
 23 36  1  0  0  0  0
 23 37  1  0  0  0  0
M  END
> <OPENEYE_ISO_SMILES>
B1(c2cc(c(c(c2[C@H](O1)CC(=O)O)C)C)Oc3nc(ns3)N)O

> <OPENEYE_INCHI>
InChI=1S/C13H14BN3O5S/c1-5-6(2)11-7(14(20)22-9(11)4-10(18)19)3-8(5)21-13-16-12(15)17-23-13/h3,9,20H,4H2,1-2H3,(H2,15,17)(H,18,19)/t9-/m1/s1

> <OPENEYE_INCHIKEY>
CXFHZAGALDYYDH-SECBINFHSA-N

> <FORMULA>
C13H14BN3O5S

$$$$
