REMARK  7 active torsions:
REMARK  status: ('A' for Active; 'I' for Inactive)
REMARK    1  A    between atoms: C_2  and  O_19 
REMARK    2  A    between atoms: O_4  and  B_15 
REMARK    3  A    between atoms: C_5  and  C_6 
REMARK    4  A    between atoms: C_5  and  C_13 
REMARK    5  A    between atoms: C_6  and  O_11 
REMARK    6  A    between atoms: C_9  and  O_19 
REMARK    7  A    between atoms: C_10  and  N_23 
ROOT
HETATM    1  C   UNL     1       0.312   1.372  -0.824  1.00  0.00     0.039 A 
HETATM    2  C   UNL     1       1.098   0.281  -1.160  1.00  0.00     0.084 A 
HETATM    3  C   UNL     1       0.522  -0.977  -1.281  1.00  0.00    -0.021 A 
HETATM    4  C   UNL     1      -1.446  -2.519  -1.195  1.00  0.00     0.049 C 
HETATM    5  C   UNL     1       1.380  -2.162  -1.647  1.00  0.00     0.052 C 
HETATM    6  C   UNL     1      -3.091   0.055  -0.417  1.00  0.00     0.146 A 
HETATM    7  O   UNL     1      -3.400   1.419  -0.135  1.00  0.00    -0.414 OA
HETATM    8  B   UNL     1      -2.207   2.186  -0.219  1.00  0.00     0.533 B 
HETATM    9  C   UNL     1      -1.622  -0.070  -0.722  1.00  0.00    -0.023 A 
HETATM   10  C   UNL     1      -1.050   1.197  -0.605  1.00  0.00    -0.020 A 
HETATM   11  C   UNL     1      -0.833  -1.149  -1.067  1.00  0.00    -0.045 A 
ENDROOT
BRANCH   2  12
HETATM   12  O   UNL     1       2.431   0.443  -1.372  1.00  0.00    -0.284 OA
BRANCH  12  13
HETATM   13  C   UNL     1       3.271   0.219  -0.334  1.00  0.00     0.251 A 
HETATM   14  S   UNL     1       2.848  -0.146   1.296  1.00  0.00     0.077 SA
HETATM   15  N   UNL     1       4.456  -0.260   1.834  1.00  0.00    -0.020 NA
HETATM   16  C   UNL     1       5.198  -0.023   0.785  1.00  0.00     0.730 A 
HETATM   17  N   UNL     1       4.585   0.229  -0.353  1.00  0.00    -0.029 NA
BRANCH  16  18
HETATM   18  N   UNL     1       6.590  -0.035   0.868  1.00  0.00    -0.230 N 
HETATM   19  H   UNL     1       7.125   0.144   0.079  1.00  0.00     0.174 HD
HETATM   20  H   UNL     1       7.024  -0.222   1.715  1.00  0.00     0.174 HD
ENDBRANCH  16  18
ENDBRANCH  12  13
ENDBRANCH   2  12
BRANCH   8  21
HETATM   21  O   UNL     1      -2.084   3.583   0.003  1.00  0.00    -0.433 OA
HETATM   22  H   UNL     1      -2.916   4.020   0.233  1.00  0.00     0.185 HD
ENDBRANCH   8  21
BRANCH   6  23
HETATM   23  C   UNL     1      -3.440  -0.826   0.783  1.00  0.00     0.145 C 
BRANCH  23  24
HETATM   24  C   UNL     1      -4.930  -0.803   1.007  1.00  0.00     0.142 C 
HETATM   25  O   UNL     1      -5.640  -0.147   0.281  1.00  0.00    -0.650 OA
BRANCH  24  26
HETATM   26  O   UNL     1      -5.469  -1.509   2.013  1.00  0.00    -0.776 OA
HETATM   27  H   UNL     1      -6.429  -1.462   2.118  1.00  0.00     0.167 HD
ENDBRANCH  24  26
ENDBRANCH  23  24
ENDBRANCH   6  23
TORSDOF 7
