3Y6
  -OEChem-07282321083D

 63 65  0     1  0  0  0  0  0999 V2000
   -2.1610    0.2430   -0.2440 N   0  0  0  0  0  0  0  0  0  0  0  0
   -0.9940   -0.4810   -0.7530 C   0  0  1  0  0  0  0  0  0  0  0  0
    0.2650    0.1730   -0.2450 C   0  0  0  0  0  0  0  0  0  0  0  0
    0.1950    1.1480    0.4720 O   0  0  0  0  0  0  0  0  0  0  0  0
   -5.7210    0.0020   -2.0400 O   0  0  0  0  0  0  0  0  0  0  0  0
   -5.6220    0.6420   -1.0120 C   0  0  0  0  0  0  0  0  0  0  0  0
   -6.8150    1.2970   -0.4030 C   0  0  0  0  0  0  0  0  0  0  0  0
   -7.9090    1.2030   -0.9240 O   0  0  0  0  0  0  0  0  0  0  0  0
   -6.6520    1.9960    0.7410 N   0  0  0  0  0  0  0  0  0  0  0  0
   -7.8020    2.6530    1.3680 C   0  0  0  0  0  0  0  0  0  0  0  0
   -8.4650    1.6890    2.3530 C   0  0  0  0  0  0  0  0  0  0  0  0
   -5.4030    2.0910    1.3180 C   0  0  0  0  0  0  0  0  0  0  0  0
   -4.3390    1.5080    0.7780 C   0  0  0  0  0  0  0  0  0  0  0  0
   -4.4300    0.7710   -0.3900 N   0  0  0  0  0  0  0  0  0  0  0  0
   -3.3300    0.1930   -0.9120 C   0  0  0  0  0  0  0  0  0  0  0  0
   -3.3920   -0.3740   -1.9850 O   0  0  0  0  0  0  0  0  0  0  0  0
   -1.0440   -1.9110   -0.2780 C   0  0  0  0  0  0  0  0  0  0  0  0
   -0.6780   -2.9350   -1.1320 C   0  0  0  0  0  0  0  0  0  0  0  0
   -0.7230   -4.2460   -0.6990 C   0  0  0  0  0  0  0  0  0  0  0  0
   -1.1370   -4.5350    0.5930 C   0  0  0  0  0  0  0  0  0  0  0  0
   -1.1870   -5.8240    1.0200 O   0  0  0  0  0  0  0  0  0  0  0  0
   -1.5030   -3.5050    1.4480 C   0  0  0  0  0  0  0  0  0  0  0  0
   -1.4510   -2.1950    1.0120 C   0  0  0  0  0  0  0  0  0  0  0  0
    1.4690   -0.3270   -0.5870 N   0  0  0  0  0  0  0  0  0  0  0  0
    2.6930    0.3090   -0.0930 C   0  0  2  0  0  0  0  0  0  0  0  0
    3.3650    1.1240   -1.2550 B   0  0  0  0  0  0  0  0  0  0  0  0
    3.5600    2.5240   -1.1200 O   0  0  0  0  0  0  0  0  0  0  0  0
    3.7770    0.4610   -2.4410 O   0  0  0  0  0  0  0  0  0  0  0  0
    3.6620   -0.7660    0.4020 C   0  0  0  0  0  0  0  0  0  0  0  0
    4.9210   -0.1120    0.9100 C   0  0  0  0  0  0  0  0  0  0  0  0
    5.9730    0.1200    0.0480 C   0  0  0  0  0  0  0  0  0  0  0  0
    7.1380    0.7260    0.5200 C   0  0  0  0  0  0  0  0  0  0  0  0
    8.2680    0.9780   -0.3980 C   0  0  0  0  0  0  0  0  0  0  0  0
    8.1840    0.6570   -1.5660 O   0  0  0  0  0  0  0  0  0  0  0  0
    9.3910    1.5630    0.0610 O   0  0  0  0  0  0  0  0  0  0  0  0
    7.2310    1.0950    1.8640 C   0  0  0  0  0  0  0  0  0  0  0  0
    6.1720    0.8570    2.7150 C   0  0  0  0  0  0  0  0  0  0  0  0
    5.0180    0.2600    2.2390 C   0  0  0  0  0  0  0  0  0  0  0  0
   -2.0930    0.7570    0.5760 H   0  0  0  0  0  0  0  0  0  0  0  0
   -1.0000   -0.4600   -1.8430 H   0  0  0  0  0  0  0  0  0  0  0  0
   -7.4660    3.5430    1.9010 H   0  0  0  0  0  0  0  0  0  0  0  0
   -8.5210    2.9390    0.6000 H   0  0  0  0  0  0  0  0  0  0  0  0
   -7.7470    1.4020    3.1210 H   0  0  0  0  0  0  0  0  0  0  0  0
   -9.3210    2.1770    2.8200 H   0  0  0  0  0  0  0  0  0  0  0  0
   -8.8010    0.7990    1.8210 H   0  0  0  0  0  0  0  0  0  0  0  0
   -5.2870    2.6530    2.2330 H   0  0  0  0  0  0  0  0  0  0  0  0
   -3.3800    1.6050    1.2660 H   0  0  0  0  0  0  0  0  0  0  0  0
   -0.3560   -2.7100   -2.1380 H   0  0  0  0  0  0  0  0  0  0  0  0
   -0.4380   -5.0460   -1.3670 H   0  0  0  0  0  0  0  0  0  0  0  0
   -2.0360   -6.2590    0.8590 H   0  0  0  0  0  0  0  0  0  0  0  0
   -1.8260   -3.7280    2.4540 H   0  0  0  0  0  0  0  0  0  0  0  0
   -1.7360   -1.3940    1.6770 H   0  0  0  0  0  0  0  0  0  0  0  0
    1.5260   -1.1070   -1.1610 H   0  0  0  0  0  0  0  0  0  0  0  0
    2.4470    0.9830    0.7280 H   0  0  0  0  0  0  0  0  0  0  0  0
    3.9810    2.9380   -1.8860 H   0  0  0  0  0  0  0  0  0  0  0  0
    4.1800    1.0450   -3.0980 H   0  0  0  0  0  0  0  0  0  0  0  0
    3.1960   -1.3320    1.2090 H   0  0  0  0  0  0  0  0  0  0  0  0
    3.9090   -1.4390   -0.4190 H   0  0  0  0  0  0  0  0  0  0  0  0
    5.8950   -0.1680   -0.9900 H   0  0  0  0  0  0  0  0  0  0  0  0
   10.1040    1.7070   -0.5770 H   0  0  0  0  0  0  0  0  0  0  0  0
    8.1300    1.5640    2.2360 H   0  0  0  0  0  0  0  0  0  0  0  0
    6.2420    1.1410    3.7550 H   0  0  0  0  0  0  0  0  0  0  0  0
    4.1900    0.0800    2.9090 H   0  0  0  0  0  0  0  0  0  0  0  0
 20 21  1  0  0  0  0
 20 22  2  0  0  0  0
 19 20  1  0  0  0  0
 22 23  1  0  0  0  0
 18 19  2  0  0  0  0
 17 23  2  0  0  0  0
 33 34  2  0  0  0  0
 17 18  1  0  0  0  0
  2 17  1  0  0  0  0
 15 16  2  0  0  0  0
 33 35  1  0  0  0  0
 32 33  1  0  0  0  0
 14 15  1  0  0  0  0
  1 15  1  0  0  0  0
 13 14  1  0  0  0  0
 12 13  2  0  0  0  0
  1  2  1  0  0  0  0
  2  3  1  0  0  0  0
 31 32  2  0  0  0  0
 30 31  1  0  0  0  0
 32 36  1  0  0  0  0
  6 14  1  0  0  0  0
  9 12  1  0  0  0  0
  3 24  1  0  0  0  0
 24 25  1  0  0  0  0
 26 28  1  0  0  0  0
  3  4  2  0  0  0  0
 29 30  1  0  0  0  0
 25 29  1  0  0  0  0
 30 38  2  0  0  0  0
  7  9  1  0  0  0  0
  9 10  1  0  0  0  0
 36 37  2  0  0  0  0
  6  7  1  0  0  0  0
  5  6  2  0  0  0  0
 25 26  1  0  0  0  0
 26 27  1  0  0  0  0
  7  8  2  0  0  0  0
 10 11  1  0  0  0  0
 37 38  1  0  0  0  0
  1 39  1  0  0  0  0
  2 40  1  0  0  0  0
 10 41  1  0  0  0  0
 10 42  1  0  0  0  0
 11 43  1  0  0  0  0
 11 44  1  0  0  0  0
 11 45  1  0  0  0  0
 12 46  1  0  0  0  0
 13 47  1  0  0  0  0
 18 48  1  0  0  0  0
 19 49  1  0  0  0  0
 21 50  1  0  0  0  0
 22 51  1  0  0  0  0
 23 52  1  0  0  0  0
 24 53  1  0  0  0  0
 25 54  1  0  0  0  0
 27 55  1  0  0  0  0
 28 56  1  0  0  0  0
 29 57  1  0  0  0  0
 29 58  1  0  0  0  0
 31 59  1  0  0  0  0
 35 60  1  0  0  0  0
 36 61  1  0  0  0  0
 37 62  1  0  0  0  0
 38 63  1  0  0  0  0
M  END
> <OPENEYE_ISO_SMILES>
B([C@H](Cc1cccc(c1)C(=O)O)NC(=O)[C@@H](c2ccc(cc2)O)NC(=O)n3ccn(c(=O)c3=O)CC)(O)O

> <OPENEYE_INCHI>
InChI=1S/C24H25BN4O9/c1-2-28-10-11-29(22(33)21(28)32)24(36)27-19(15-6-8-17(30)9-7-15)20(31)26-18(25(37)38)13-14-4-3-5-16(12-14)23(34)35/h3-12,18-19,30,37-38H,2,13H2,1H3,(H,26,31)(H,27,36)(H,34,35)/t18-,19+/m0/s1

> <OPENEYE_INCHIKEY>
ALFFAZKBOABSLT-RBUKOAKNSA-N

> <FORMULA>
C24H25BN4O9

$$$$
