4CB
  -OEChem-07282321083D

 19 19  0     0  0  0  0  0  0999 V2000
    0.0200   -0.0000    2.9110 B   0  0  0  0  0  0  0  0  0  0  0  0
    1.2590   -0.0010    3.6050 O   0  0  0  0  0  0  0  0  0  0  0  0
   -1.1990    0.0000    3.6380 O   0  0  0  0  0  0  0  0  0  0  0  0
   -0.0000   -0.0000    1.3410 C   0  0  0  0  0  0  0  0  0  0  0  0
   -1.2160    0.0000    0.6610 C   0  0  0  0  0  0  0  0  0  0  0  0
   -1.2360    0.0000   -0.7160 C   0  0  0  0  0  0  0  0  0  0  0  0
   -0.0370    0.0000   -1.4310 C   0  0  0  0  0  0  0  0  0  0  0  0
   -0.0570   -0.0000   -2.9110 C   0  0  0  0  0  0  0  0  0  0  0  0
    1.1000   -0.0000   -3.6000 O   0  0  0  0  0  0  0  0  0  0  0  0
   -1.1160   -0.0000   -3.5040 O   0  0  0  0  0  0  0  0  0  0  0  0
    1.1800   -0.0000   -0.7490 C   0  0  0  0  0  0  0  0  0  0  0  0
    1.1970    0.0040    0.6290 C   0  0  0  0  0  0  0  0  0  0  0  0
    1.0510   -0.0010    4.5490 H   0  0  0  0  0  0  0  0  0  0  0  0
   -0.9660    0.0000    4.5760 H   0  0  0  0  0  0  0  0  0  0  0  0
   -2.1440    0.0000    1.2150 H   0  0  0  0  0  0  0  0  0  0  0  0
   -2.1790    0.0000   -1.2430 H   0  0  0  0  0  0  0  0  0  0  0  0
    1.0870   -0.0010   -4.5660 H   0  0  0  0  0  0  0  0  0  0  0  0
    2.1080   -0.0010   -1.3000 H   0  0  0  0  0  0  0  0  0  0  0  0
    2.1390    0.0040    1.1570 H   0  0  0  0  0  0  0  0  0  0  0  0
  1  2  1  0  0  0  0
  1  3  1  0  0  0  0
  1  4  1  0  0  0  0
  2 13  1  0  0  0  0
  3 14  1  0  0  0  0
  4  5  2  0  0  0  0
  4 12  1  0  0  0  0
  5  6  1  0  0  0  0
  5 15  1  0  0  0  0
  6  7  2  0  0  0  0
  6 16  1  0  0  0  0
  7  8  1  0  0  0  0
  7 11  1  0  0  0  0
  8  9  1  0  0  0  0
  8 10  2  0  0  0  0
  9 17  1  0  0  0  0
 11 12  2  0  0  0  0
 11 18  1  0  0  0  0
 12 19  1  0  0  0  0
M  END
> <OPENEYE_ISO_SMILES>
B(c1ccc(cc1)C(=O)O)(O)O

> <OPENEYE_INCHI>
InChI=1S/C7H7BO4/c9-7(10)5-1-3-6(4-2-5)8(11)12/h1-4,11-12H,(H,9,10)

> <OPENEYE_INCHIKEY>
SIAVMDKGVRXFAX-UHFFFAOYSA-N

> <FORMULA>
C7H7BO4

$$$$
