REMARK  5 active torsions:
REMARK  status: ('A' for Active; 'I' for Inactive)
REMARK    1  A    between atoms: B_1  and  O_2 
REMARK    2  A    between atoms: B_1  and  O_3 
REMARK    3  A    between atoms: B_1  and  C_4 
REMARK    4  A    between atoms: C_7  and  C_8 
REMARK    5  A    between atoms: C_8  and  O_9 
ROOT
HETATM    1  C   UNL     1       0.000   0.000   1.341  1.00  0.00    -0.032 A 
HETATM    2  C   UNL     1      -1.216   0.000   0.661  1.00  0.00     0.002 A 
HETATM    3  C   UNL     1      -1.236   0.000  -0.716  1.00  0.00     0.018 A 
HETATM    4  C   UNL     1      -0.037   0.000  -1.431  1.00  0.00     0.037 A 
HETATM    5  C   UNL     1       1.180   0.000  -0.749  1.00  0.00     0.018 A 
HETATM    6  C   UNL     1       1.197   0.004   0.629  1.00  0.00     0.002 A 
ENDROOT
BRANCH   1   7
HETATM    7  B   UNL     1       0.020   0.000   2.911  1.00  0.00     0.529 B 
BRANCH   7   8
HETATM    8  O   UNL     1       1.259  -0.001   3.605  1.00  0.00    -0.433 OA
HETATM    9  H   UNL     1       1.051  -0.001   4.549  1.00  0.00     0.185 HD
ENDBRANCH   7   8
BRANCH   7  10
HETATM   10  O   UNL     1      -1.199   0.000   3.638  1.00  0.00    -0.433 OA
HETATM   11  H   UNL     1      -0.966   0.000   4.576  1.00  0.00     0.185 HD
ENDBRANCH   7  10
ENDBRANCH   1   7
BRANCH   4  12
HETATM   12  C   UNL     1      -0.057   0.000  -2.911  1.00  0.00     0.176 C 
HETATM   13  O   UNL     1      -1.116   0.000  -3.504  1.00  0.00    -0.646 OA
BRANCH  12  14
HETATM   14  O   UNL     1       1.100   0.000  -3.600  1.00  0.00    -0.773 OA
HETATM   15  H   UNL     1       1.087  -0.001  -4.566  1.00  0.00     0.167 HD
ENDBRANCH  12  14
ENDBRANCH   4  12
TORSDOF 5
