REMARK  7 active torsions:
REMARK  status: ('A' for Active; 'I' for Inactive)
REMARK    1  A    between atoms: C_2  and  C_18 
REMARK       I    between atoms: C_4  and  N_16 
REMARK    2  A    between atoms: C_4  and  C_18 
REMARK    3  A    between atoms: C_7  and  C_8 
REMARK    4  A    between atoms: C_8  and  C_10 
REMARK    5  A    between atoms: C_10  and  O_11 
REMARK    6  A    between atoms: B_13  and  O_14 
REMARK    7  A    between atoms: C_15  and  N_16 
ROOT
HETATM    1  C   UNL     1      -1.426   1.788   1.304  1.00  0.00     0.023 C 
HETATM    2  C   UNL     1      -2.430   1.855   0.149  1.00  0.00     0.032 C 
HETATM    3  C   UNL     1      -3.378   0.657   0.216  1.00  0.00     0.112 C 
HETATM    4  O   UNL     1      -2.638  -0.554   0.032  1.00  0.00    -0.421 OA
HETATM    5  B   UNL     1      -1.574  -0.702   0.972  1.00  0.00     0.517 B 
HETATM    6  C   UNL     1      -0.585   0.513   1.157  1.00  0.00     0.110 C 
ENDROOT
BRANCH   6   7
HETATM    7  N   UNL     1       0.286   0.626  -0.015  1.00  0.00    -0.360 N 
HETATM    8  C   UNL     1       1.581   0.261   0.069  1.00  0.00     0.222 C 
HETATM    9  O   UNL     1       2.025  -0.161   1.116  1.00  0.00    -0.273 OA
HETATM   10  H   UNL     1      -0.069   0.964  -0.853  1.00  0.00     0.162 HD
BRANCH   8  11
HETATM   11  C   UNL     1       2.477   0.377  -1.137  1.00  0.00     0.148 C 
BRANCH  11  12
HETATM   12  C   UNL     1       3.864  -0.091  -0.779  1.00  0.00    -0.009 A 
HETATM   13  S   UNL     1       5.152   0.933  -0.159  1.00  0.00    -0.106 SA
HETATM   14  C   UNL     1       6.247  -0.440  -0.079  1.00  0.00     0.050 A 
HETATM   15  C   UNL     1       5.619  -1.539  -0.501  1.00  0.00     0.008 A 
HETATM   16  C   UNL     1       4.305  -1.345  -0.892  1.00  0.00     0.015 A 
ENDBRANCH  11  12
ENDBRANCH   8  11
ENDBRANCH   6   7
BRANCH   5  17
HETATM   17  O   UNL     1      -1.411  -1.902   1.714  1.00  0.00    -0.436 OA
HETATM   18  H   UNL     1      -2.074  -2.578   1.519  1.00  0.00     0.184 HD
ENDBRANCH   5  17
BRANCH   3  19
HETATM   19  C   UNL     1      -4.434   0.782  -0.884  1.00  0.00     0.140 C 
BRANCH  19  20
HETATM   20  C   UNL     1      -5.440  -0.331  -0.743  1.00  0.00     0.141 C 
HETATM   21  O   UNL     1      -5.324  -1.141   0.147  1.00  0.00    -0.650 OA
BRANCH  20  22
HETATM   22  O   UNL     1      -6.464  -0.423  -1.605  1.00  0.00    -0.776 OA
HETATM   23  H   UNL     1      -7.084  -1.154  -1.474  1.00  0.00     0.167 HD
ENDBRANCH  20  22
ENDBRANCH  19  20
ENDBRANCH   3  19
TORSDOF 7
