4D6
  -OEChem-07282321083D

 36 37  0     1  0  0  0  0  0999 V2000
    6.2470   -0.4400   -0.0790 C   0  0  0  0  0  0  0  0  0  0  0  0
    3.8640   -0.0910   -0.7790 C   0  0  0  0  0  0  0  0  0  0  0  0
    5.6190   -1.5390   -0.5010 C   0  0  0  0  0  0  0  0  0  0  0  0
    1.5810    0.2610    0.0690 C   0  0  0  0  0  0  0  0  0  0  0  0
   -1.4260    1.7880    1.3040 C   0  0  0  0  0  0  0  0  0  0  0  0
   -2.4300    1.8550    0.1490 C   0  0  0  0  0  0  0  0  0  0  0  0
   -3.3780    0.6570    0.2160 C   0  0  1  0  0  0  0  0  0  0  0  0
   -4.4340    0.7820   -0.8840 C   0  0  0  0  0  0  0  0  0  0  0  0
   -5.3240   -1.1410    0.1470 O   0  0  0  0  0  0  0  0  0  0  0  0
   -5.4400   -0.3310   -0.7430 C   0  0  0  0  0  0  0  0  0  0  0  0
   -6.4640   -0.4230   -1.6050 O   0  0  0  0  0  0  0  0  0  0  0  0
   -2.6380   -0.5540    0.0320 O   0  0  0  0  0  0  0  0  0  0  0  0
   -1.5740   -0.7020    0.9720 B   0  0  0  0  0  0  0  0  0  0  0  0
   -1.4110   -1.9020    1.7140 O   0  0  0  0  0  0  0  0  0  0  0  0
   -0.5850    0.5130    1.1570 C   0  0  1  0  0  0  0  0  0  0  0  0
    0.2860    0.6260   -0.0150 N   0  0  0  0  0  0  0  0  0  0  0  0
    2.0250   -0.1610    1.1160 O   0  0  0  0  0  0  0  0  0  0  0  0
    2.4770    0.3770   -1.1370 C   0  0  0  0  0  0  0  0  0  0  0  0
    5.1520    0.9330   -0.1590 S   0  0  0  0  0  0  0  0  0  0  0  0
    4.3050   -1.3450   -0.8920 C   0  0  0  0  0  0  0  0  0  0  0  0
    7.2710   -0.4020    0.2630 H   0  0  0  0  0  0  0  0  0  0  0  0
    6.0980   -2.5060   -0.5360 H   0  0  0  0  0  0  0  0  0  0  0  0
   -0.7740    2.6610    1.2720 H   0  0  0  0  0  0  0  0  0  0  0  0
   -1.9610    1.7660    2.2540 H   0  0  0  0  0  0  0  0  0  0  0  0
   -3.0060    2.7780    0.2230 H   0  0  0  0  0  0  0  0  0  0  0  0
   -1.8920    1.8380   -0.7990 H   0  0  0  0  0  0  0  0  0  0  0  0
   -3.8690    0.6380    1.1890 H   0  0  0  0  0  0  0  0  0  0  0  0
   -4.9400    1.7430   -0.7940 H   0  0  0  0  0  0  0  0  0  0  0  0
   -3.9520    0.7150   -1.8590 H   0  0  0  0  0  0  0  0  0  0  0  0
   -7.0840   -1.1540   -1.4740 H   0  0  0  0  0  0  0  0  0  0  0  0
   -2.0740   -2.5780    1.5190 H   0  0  0  0  0  0  0  0  0  0  0  0
    0.0180    0.3640    2.0530 H   0  0  0  0  0  0  0  0  0  0  0  0
   -0.0690    0.9640   -0.8530 H   0  0  0  0  0  0  0  0  0  0  0  0
    2.5170    1.4180   -1.4600 H   0  0  0  0  0  0  0  0  0  0  0  0
    2.0820   -0.2390   -1.9440 H   0  0  0  0  0  0  0  0  0  0  0  0
    3.6820   -2.1490   -1.2550 H   0  0  0  0  0  0  0  0  0  0  0  0
  9 10  2  0  0  0  0
  8 10  1  0  0  0  0
 10 11  1  0  0  0  0
  7  8  1  0  0  0  0
  6  7  1  0  0  0  0
  7 12  1  0  0  0  0
  5  6  1  0  0  0  0
 12 13  1  0  0  0  0
  5 15  1  0  0  0  0
 13 14  1  0  0  0  0
 13 15  1  0  0  0  0
 15 16  1  0  0  0  0
  4 16  1  0  0  0  0
  4 17  2  0  0  0  0
  1 19  1  0  0  0  0
  2 19  1  0  0  0  0
  4 18  1  0  0  0  0
  1  3  2  0  0  0  0
  2 18  1  0  0  0  0
  2 20  2  0  0  0  0
  3 20  1  0  0  0  0
  1 21  1  0  0  0  0
  3 22  1  0  0  0  0
  5 23  1  0  0  0  0
  5 24  1  0  0  0  0
  6 25  1  0  0  0  0
  6 26  1  0  0  0  0
  7 27  1  0  0  0  0
  8 28  1  0  0  0  0
  8 29  1  0  0  0  0
 11 30  1  0  0  0  0
 14 31  1  0  0  0  0
 15 32  1  0  0  0  0
 16 33  1  0  0  0  0
 18 34  1  0  0  0  0
 18 35  1  0  0  0  0
 20 36  1  0  0  0  0
M  END
> <OPENEYE_ISO_SMILES>
B1([C@H](CC[C@H](O1)CC(=O)O)NC(=O)Cc2cccs2)O

> <OPENEYE_INCHI>
InChI=1S/C12H16BNO5S/c15-11(7-9-2-1-5-20-9)14-10-4-3-8(6-12(16)17)19-13(10)18/h1-2,5,8,10,18H,3-4,6-7H2,(H,14,15)(H,16,17)/t8-,10-/m0/s1

> <OPENEYE_INCHIKEY>
IOOWNWLVCOUUEX-WPRPVWTQSA-N

> <FORMULA>
C12H16BNO5S

$$$$
