4J6
  -OEChem-07282321083D

 53 54  0     1  0  0  0  0  0999 V2000
    7.6130   -0.6550   -0.5620 C   0  0  0  0  0  0  0  0  0  0  0  0
    3.1760   -1.9630    0.9860 C   0  0  0  0  0  0  0  0  0  0  0  0
   -7.2760    0.9560    0.8700 N   0  0  0  0  0  0  0  0  0  0  0  0
    5.4970   -1.1530    1.9770 O   0  0  0  0  0  0  0  0  0  0  0  0
    2.5410    3.6100   -0.1130 O   0  0  0  0  0  0  0  0  0  0  0  0
   -7.3620   -1.4080    0.1650 O   0  0  0  0  0  0  0  0  0  0  0  0
   -7.6000    0.4250   -1.5180 O   0  0  0  0  0  0  0  0  0  0  0  0
    1.0070    2.6110    1.1510 O   0  0  0  0  0  0  0  0  0  0  0  0
    6.1760   -0.6890   -2.5050 O   0  0  0  0  0  0  0  0  0  0  0  0
    5.2270   -0.3740    1.0950 C   0  0  0  0  0  0  0  0  0  0  0  0
   -1.0950    0.0720   -0.9230 C   0  0  0  0  0  0  0  0  0  0  0  0
   -4.4720   -0.6680    0.4140 C   0  0  0  0  0  0  0  0  0  0  0  0
   -2.0560   -1.2440    0.9080 C   0  0  0  0  0  0  0  0  0  0  0  0
    3.5790    1.0110   -0.7480 N   0  0  0  0  0  0  0  0  0  0  0  0
   -2.5600    0.2620   -0.8640 N   0  0  0  0  0  0  0  0  0  0  0  0
   -5.3780   -0.1710   -0.6260 N   0  0  0  0  0  0  0  0  0  0  0  0
    0.3840   -0.0550    1.3960 S   0  0  0  0  0  0  0  0  0  0  0  0
    1.9520    2.5050    0.3910 C   0  0  0  0  0  0  0  0  0  0  0  0
    2.4320    1.2230    0.0350 C   0  0  0  0  0  0  0  0  0  0  0  0
    6.2660   -0.2350   -1.1530 C   0  0  1  0  0  0  0  0  0  0  0  0
    2.6310   -1.0880   -0.1450 C   0  0  2  0  0  0  0  0  0  0  0  0
   -3.1000   -0.9520   -0.1990 C   0  0  2  0  0  0  0  0  0  0  0  0
   -0.7170   -0.8840    0.2240 C   0  0  2  0  0  0  0  0  0  0  0  0
    5.1330   -0.8530   -0.3310 C   0  0  2  0  0  0  0  0  0  0  0  0
    3.7860   -0.4330   -0.9220 C   0  0  2  0  0  0  0  0  0  0  0  0
    1.8390    0.0740    0.4110 C   0  0  0  0  0  0  0  0  0  0  0  0
   -7.0100   -0.1310   -0.3510 S   0  0  0  0  0  0  0  0  0  0  0  0
    8.4200   -0.2150   -1.1470 H   0  0  0  0  0  0  0  0  0  0  0  0
    7.6810   -0.3090    0.4690 H   0  0  0  0  0  0  0  0  0  0  0  0
    7.6970   -1.7420   -0.5860 H   0  0  0  0  0  0  0  0  0  0  0  0
    3.6180   -1.3290    1.7550 H   0  0  0  0  0  0  0  0  0  0  0  0
    2.3640   -2.5470    1.4180 H   0  0  0  0  0  0  0  0  0  0  0  0
    3.9370   -2.6360    0.5890 H   0  0  0  0  0  0  0  0  0  0  0  0
   -7.6970    0.6660    1.6940 H   0  0  0  0  0  0  0  0  0  0  0  0
   -7.0100    1.8820    0.7610 H   0  0  0  0  0  0  0  0  0  0  0  0
    2.1440    4.4390    0.1870 H   0  0  0  0  0  0  0  0  0  0  0  0
    6.2440   -1.6490   -2.6030 H   0  0  0  0  0  0  0  0  0  0  0  0
    5.0540    0.6660    1.3270 H   0  0  0  0  0  0  0  0  0  0  0  0
   -0.8150   -0.3680   -1.8800 H   0  0  0  0  0  0  0  0  0  0  0  0
   -0.5880    1.0280   -0.7910 H   0  0  0  0  0  0  0  0  0  0  0  0
   -4.3720    0.0840    1.1970 H   0  0  0  0  0  0  0  0  0  0  0  0
   -4.8770   -1.5850    0.8400 H   0  0  0  0  0  0  0  0  0  0  0  0
   -2.2280   -0.6080    1.7770 H   0  0  0  0  0  0  0  0  0  0  0  0
   -2.0740   -2.2960    1.1920 H   0  0  0  0  0  0  0  0  0  0  0  0
    4.1420    1.7090   -1.1190 H   0  0  0  0  0  0  0  0  0  0  0  0
   -2.9480    0.3700   -1.7890 H   0  0  0  0  0  0  0  0  0  0  0  0
   -5.0210    0.1340   -1.4740 H   0  0  0  0  0  0  0  0  0  0  0  0
    6.1820    0.8510   -1.1280 H   0  0  0  0  0  0  0  0  0  0  0  0
    2.0080   -1.6800   -0.8160 H   0  0  0  0  0  0  0  0  0  0  0  0
   -3.1590   -1.7820   -0.9040 H   0  0  0  0  0  0  0  0  0  0  0  0
   -0.2420   -1.7820   -0.1730 H   0  0  0  0  0  0  0  0  0  0  0  0
    5.2170   -1.9400   -0.3560 H   0  0  0  0  0  0  0  0  0  0  0  0
    3.7330   -0.6990   -1.9780 H   0  0  0  0  0  0  0  0  0  0  0  0
  6 27  2  0  0  0  0
 16 27  1  0  0  0  0
 12 16  1  0  0  0  0
  3 27  1  0  0  0  0
  7 27  2  0  0  0  0
 15 22  1  0  0  0  0
 12 22  1  0  0  0  0
 13 22  1  0  0  0  0
 11 15  1  0  0  0  0
 11 23  1  0  0  0  0
 13 23  1  0  0  0  0
  8 18  2  0  0  0  0
 17 23  1  0  0  0  0
  5 18  1  0  0  0  0
 18 19  1  0  0  0  0
 17 26  1  0  0  0  0
 19 26  2  0  0  0  0
 14 19  1  0  0  0  0
 21 26  1  0  0  0  0
 14 25  1  0  0  0  0
 21 25  1  0  0  0  0
  2 21  1  0  0  0  0
 24 25  1  0  0  0  0
 10 24  1  0  0  0  0
  4 10  2  0  0  0  0
 20 24  1  0  0  0  0
  9 20  1  0  0  0  0
  1 20  1  0  0  0  0
  1 28  1  0  0  0  0
  1 29  1  0  0  0  0
  1 30  1  0  0  0  0
  2 31  1  0  0  0  0
  2 32  1  0  0  0  0
  2 33  1  0  0  0  0
  3 34  1  0  0  0  0
  3 35  1  0  0  0  0
  5 36  1  0  0  0  0
  9 37  1  0  0  0  0
 10 38  1  0  0  0  0
 11 39  1  0  0  0  0
 11 40  1  0  0  0  0
 12 41  1  0  0  0  0
 12 42  1  0  0  0  0
 13 43  1  0  0  0  0
 13 44  1  0  0  0  0
 14 45  1  0  0  0  0
 15 46  1  0  0  0  0
 16 47  1  0  0  0  0
 20 48  1  0  0  0  0
 21 49  1  0  0  0  0
 22 50  1  0  0  0  0
 23 51  1  0  0  0  0
 24 52  1  0  0  0  0
 25 53  1  0  0  0  0
M  END
> <OPENEYE_ISO_SMILES>
C[C@@H]1[C@@H](NC(=C1S[C@H]2C[C@H](NC2)CNS(=O)(=O)N)C(=O)O)[C@H](C=O)[C@@H](C)O

> <OPENEYE_INCHI>
InChI=1S/C15H26N4O6S2/c1-7-12(11(6-20)8(2)21)19-13(15(22)23)14(7)26-10-3-9(17-5-10)4-18-27(16,24)25/h6-12,17-19,21H,3-5H2,1-2H3,(H,22,23)(H2,16,24,25)/t7-,8-,9+,10+,11-,12-/m1/s1

> <OPENEYE_INCHIKEY>
QJKQOMNNBOTMCR-PQTSNVLCSA-N

> <FORMULA>
C15H26N4O6S2

$$$$
