4OV
  -OEChem-07282321083D

 55 56  0     1  0  0  0  0  0999 V2000
    2.5280    3.0400   -1.1330 C   0  0  0  0  0  0  0  0  0  0  0  0
    0.7360   -1.5530   -0.0710 C   0  0  0  0  0  0  0  0  0  0  0  0
    1.4690    4.4620    0.8450 C   0  0  0  0  0  0  0  0  0  0  0  0
   -2.7240   -1.3700   -1.2370 C   0  0  0  0  0  0  0  0  0  0  0  0
   -6.0530    1.0430    0.3640 C   0  0  0  0  0  0  0  0  0  0  0  0
   -6.0230    0.8760    1.7360 C   0  0  0  0  0  0  0  0  0  0  0  0
   -0.5650    0.9230    1.2480 S   0  0  0  0  0  0  0  0  0  0  0  0
   -4.7160   -1.1120    1.4650 C   0  0  0  0  0  0  0  0  0  0  0  0
   -5.4200    0.1300   -0.4580 C   0  0  0  0  0  0  0  0  0  0  0  0
   -4.0510   -1.9370   -0.8030 C   0  0  2  0  0  0  0  0  0  0  0  0
    0.8340    3.1340    0.5230 C   0  0  0  0  0  0  0  0  0  0  0  0
    3.2040    2.3400   -2.0650 O   0  0  0  0  0  0  0  0  0  0  0  0
    2.8690    4.1740   -0.8590 O   0  0  0  0  0  0  0  0  0  0  0  0
    1.3700    2.4340   -0.4490 C   0  0  0  0  0  0  0  0  0  0  0  0
    0.9690    1.1860   -0.9070 N   0  0  0  0  0  0  0  0  0  0  0  0
   -0.3570    2.7270    1.3420 C   0  0  0  0  0  0  0  0  0  0  0  0
   -0.3420    0.6320   -0.5370 C   0  0  1  0  0  0  0  0  0  0  0  0
   -0.3740   -0.8700   -0.8280 C   0  0  2  0  0  0  0  0  0  0  0  0
    0.4760   -2.4110    0.7380 O   0  0  0  0  0  0  0  0  0  0  0  0
    2.0130   -1.2060   -0.2950 O   0  0  0  0  0  0  0  0  0  0  0  0
    3.0300   -1.9050    0.4700 C   0  0  0  0  0  0  0  0  0  0  0  0
    4.4130   -1.3780    0.0800 C   0  0  1  0  0  0  0  0  0  0  0  0
    5.4580   -2.0140    0.9600 C   0  0  0  0  0  0  0  0  0  0  0  0
    6.1090   -2.9450    0.5480 O   0  0  0  0  0  0  0  0  0  0  0  0
    4.6860   -1.7110   -1.3240 N   0  0  0  0  0  0  0  0  0  0  0  0
   -1.6640   -1.4220   -0.4060 N   0  0  0  0  0  0  0  0  0  0  0  0
   -2.6100   -0.8650   -2.3340 O   0  0  0  0  0  0  0  0  0  0  0  0
   -4.8810   -2.2010   -1.9850 N   0  0  0  0  0  0  0  0  0  0  0  0
   -4.7520   -0.9480    0.0930 C   0  0  0  0  0  0  0  0  0  0  0  0
   -5.3590   -0.2050    2.2860 C   0  0  0  0  0  0  0  0  0  0  0  0
    0.9280    4.9340    1.6660 H   0  0  0  0  0  0  0  0  0  0  0  0
    2.5080    4.3070    1.1360 H   0  0  0  0  0  0  0  0  0  0  0  0
    1.4300    5.1060   -0.0330 H   0  0  0  0  0  0  0  0  0  0  0  0
   -6.5750    1.8850   -0.0660 H   0  0  0  0  0  0  0  0  0  0  0  0
   -6.5170    1.5890    2.3780 H   0  0  0  0  0  0  0  0  0  0  0  0
   -4.1870   -1.9500    1.8950 H   0  0  0  0  0  0  0  0  0  0  0  0
   -5.4470    0.2580   -1.5300 H   0  0  0  0  0  0  0  0  0  0  0  0
   -3.8870   -2.8680   -0.2590 H   0  0  0  0  0  0  0  0  0  0  0  0
    3.9530    2.7810   -2.4880 H   0  0  0  0  0  0  0  0  0  0  0  0
   -1.2500    3.2170    0.9540 H   0  0  0  0  0  0  0  0  0  0  0  0
   -0.2020    3.0220    2.3800 H   0  0  0  0  0  0  0  0  0  0  0  0
   -1.1300    1.1360   -1.0970 H   0  0  0  0  0  0  0  0  0  0  0  0
   -0.2410   -1.0360   -1.8970 H   0  0  0  0  0  0  0  0  0  0  0  0
    2.8640   -1.7370    1.5340 H   0  0  0  0  0  0  0  0  0  0  0  0
    2.9750   -2.9730    0.2570 H   0  0  0  0  0  0  0  0  0  0  0  0
    4.4390   -0.2960    0.2090 H   0  0  0  0  0  0  0  0  0  0  0  0
    5.5660   -1.3190   -1.6240 H   0  0  0  0  0  0  0  0  0  0  0  0
    4.6670   -2.7100   -1.4690 H   0  0  0  0  0  0  0  0  0  0  0  0
   -1.7550   -1.8250    0.4720 H   0  0  0  0  0  0  0  0  0  0  0  0
   -5.0470   -1.3530   -2.5070 H   0  0  0  0  0  0  0  0  0  0  0  0
   -4.4630   -2.9090   -2.5700 H   0  0  0  0  0  0  0  0  0  0  0  0
   -5.3320   -0.3330    3.3580 H   0  0  0  0  0  0  0  0  0  0  0  0
    5.6670   -1.5470    2.2010 O   0  0  0  0  0  0  0  0  0  0  0  0
    1.5610    0.6720   -1.4780 H   0  0  0  0  0  0  0  0  0  0  0  0
    6.3480   -1.9870    2.7270 H   0  0  0  0  0  0  0  0  0  0  0  0
  7 16  1  0  0  0  0
  7 17  1  0  0  0  0
  3 11  1  0  0  0  0
 11 16  1  0  0  0  0
 11 14  2  0  0  0  0
  1 13  2  0  0  0  0
  1 14  1  0  0  0  0
 14 15  1  0  0  0  0
  1 12  1  0  0  0  0
 15 17  1  0  0  0  0
 17 18  1  0  0  0  0
  8 30  2  0  0  0  0
  6 30  1  0  0  0  0
  8 29  1  0  0  0  0
  5  6  2  0  0  0  0
  4 27  2  0  0  0  0
 18 26  1  0  0  0  0
  2 18  1  0  0  0  0
 20 21  1  0  0  0  0
  2 20  1  0  0  0  0
  4 26  1  0  0  0  0
  4 10  1  0  0  0  0
 10 29  1  0  0  0  0
  9 29  2  0  0  0  0
  5  9  1  0  0  0  0
 21 22  1  0  0  0  0
  2 19  2  0  0  0  0
 10 28  1  0  0  0  0
 23 24  2  0  0  0  0
 22 23  1  0  0  0  0
 22 25  1  0  0  0  0
  3 31  1  0  0  0  0
  3 32  1  0  0  0  0
  3 33  1  0  0  0  0
  5 34  1  0  0  0  0
  6 35  1  0  0  0  0
  8 36  1  0  0  0  0
  9 37  1  0  0  0  0
 10 38  1  0  0  0  0
 12 39  1  0  0  0  0
 16 40  1  0  0  0  0
 16 41  1  0  0  0  0
 17 42  1  0  0  0  0
 18 43  1  0  0  0  0
 21 44  1  0  0  0  0
 21 45  1  0  0  0  0
 22 46  1  0  0  0  0
 25 47  1  0  0  0  0
 25 48  1  0  0  0  0
 26 49  1  0  0  0  0
 28 50  1  0  0  0  0
 28 51  1  0  0  0  0
 30 52  1  0  0  0  0
 23 53  1  0  0  0  0
 15 54  1  0  0  0  0
 53 55  1  0  0  0  0
M  END
> <OPENEYE_ISO_SMILES>
CC1=C(N[C@H](SC1)[C@@H](C(=O)OC[C@@H](C(=O)O)N)NC(=O)[C@@H](c2ccccc2)N)C(=O)O

> <OPENEYE_INCHI>
InChI=1S/C19H24N4O7S/c1-9-8-31-16(23-13(9)18(27)28)14(19(29)30-7-11(20)17(25)26)22-15(24)12(21)10-5-3-2-4-6-10/h2-6,11-12,14,16,23H,7-8,20-21H2,1H3,(H,22,24)(H,25,26)(H,27,28)/t11-,12+,14-,16+/m0/s1

> <OPENEYE_INCHIKEY>
MDWSKJLKCDZDJQ-CQJJVWNLSA-N

> <FORMULA>
C19H24N4O7S

$$$$
