5R7
  -OEChem-07282321083D

 53 54  0     1  0  0  0  0  0999 V2000
   -6.4530    1.7900   -1.8670 C   0  0  0  0  0  0  0  0  0  0  0  0
   -2.1790    1.5720    0.7120 C   0  0  0  0  0  0  0  0  0  0  0  0
    7.4000   -1.2410    0.5120 N   0  0  0  0  0  0  0  0  0  0  0  0
   -4.1330    2.1810    2.1800 O   0  0  0  0  0  0  0  0  0  0  0  0
   -4.1280   -3.4310    0.6020 O   0  0  0  0  0  0  0  0  0  0  0  0
    7.2210    1.1370    1.1490 O   0  0  0  0  0  0  0  0  0  0  0  0
    7.9030    0.4950   -1.1690 O   0  0  0  0  0  0  0  0  0  0  0  0
   -1.9550   -3.3840    0.1580 O   0  0  0  0  0  0  0  0  0  0  0  0
   -6.6910    0.1550   -0.1030 O   0  0  0  0  0  0  0  0  0  0  0  0
   -4.5900    1.3360    1.4480 C   0  0  0  0  0  0  0  0  0  0  0  0
    1.3660   -0.3250   -1.3880 C   0  0  0  0  0  0  0  0  0  0  0  0
    4.4590    0.1910    0.4910 C   0  0  0  0  0  0  0  0  0  0  0  0
    1.9630    0.3610    0.8570 C   0  0  0  0  0  0  0  0  0  0  0  0
   -4.1790   -0.7260   -0.3810 N   0  0  0  0  0  0  0  0  0  0  0  0
    2.8220   -0.0960   -1.3360 N   0  0  0  0  0  0  0  0  0  0  0  0
    5.5340    0.3810   -0.4860 N   0  0  0  0  0  0  0  0  0  0  0  0
   -0.5640   -0.7430    0.5540 S   0  0  0  0  0  0  0  0  0  0  0  0
   -3.0190   -2.7990    0.1760 C   0  0  0  0  0  0  0  0  0  0  0  0
   -3.0960   -1.3880   -0.2720 C   0  0  0  0  0  0  0  0  0  0  0  0
   -6.2600    1.4890   -0.3790 C   0  0  1  0  0  0  0  0  0  0  0  0
   -2.4440    0.9020   -0.6380 C   0  0  2  0  0  0  0  0  0  0  0  0
    3.1350    0.6670   -0.1090 C   0  0  2  0  0  0  0  0  0  0  0  0
    0.7550    0.3050   -0.1190 C   0  0  2  0  0  0  0  0  0  0  0  0
   -4.7800    1.6320   -0.0180 C   0  0  2  0  0  0  0  0  0  0  0  0
   -3.9550    0.6470   -0.8480 C   0  0  2  0  0  0  0  0  0  0  0  0
   -1.8990   -0.5470   -0.6590 C   0  0  1  0  0  0  0  0  0  0  0  0
    7.1160    0.3080   -0.0010 S   0  0  0  0  0  0  0  0  0  0  0  0
   -7.5070    1.6880   -2.1240 H   0  0  0  0  0  0  0  0  0  0  0  0
   -6.1240    2.8070   -2.0780 H   0  0  0  0  0  0  0  0  0  0  0  0
   -5.8650    1.0880   -2.4580 H   0  0  0  0  0  0  0  0  0  0  0  0
   -1.1050    1.6970    0.8510 H   0  0  0  0  0  0  0  0  0  0  0  0
   -2.6640    2.5480    0.7340 H   0  0  0  0  0  0  0  0  0  0  0  0
   -2.5790    0.9490    1.5110 H   0  0  0  0  0  0  0  0  0  0  0  0
    6.6880   -1.8990    0.4850 H   0  0  0  0  0  0  0  0  0  0  0  0
    8.2790   -1.4900    0.8390 H   0  0  0  0  0  0  0  0  0  0  0  0
   -4.0280   -4.3510    0.8840 H   0  0  0  0  0  0  0  0  0  0  0  0
   -7.6220   -0.0080   -0.3080 H   0  0  0  0  0  0  0  0  0  0  0  0
   -4.8630    0.3690    1.8430 H   0  0  0  0  0  0  0  0  0  0  0  0
    0.9470    0.1500   -2.2760 H   0  0  0  0  0  0  0  0  0  0  0  0
    1.1600   -1.3950   -1.4070 H   0  0  0  0  0  0  0  0  0  0  0  0
    4.3830   -0.8660    0.7460 H   0  0  0  0  0  0  0  0  0  0  0  0
    4.6780    0.7670    1.3900 H   0  0  0  0  0  0  0  0  0  0  0  0
    2.1110   -0.5990    1.3510 H   0  0  0  0  0  0  0  0  0  0  0  0
    1.8380    1.1590    1.5890 H   0  0  0  0  0  0  0  0  0  0  0  0
    3.1400    0.3950   -2.1580 H   0  0  0  0  0  0  0  0  0  0  0  0
    5.3200    0.5500   -1.4160 H   0  0  0  0  0  0  0  0  0  0  0  0
   -6.8480    2.1910    0.2130 H   0  0  0  0  0  0  0  0  0  0  0  0
   -2.0260    1.4910   -1.4550 H   0  0  0  0  0  0  0  0  0  0  0  0
    3.1780    1.7350   -0.3260 H   0  0  0  0  0  0  0  0  0  0  0  0
    0.3820    1.3080   -0.3290 H   0  0  0  0  0  0  0  0  0  0  0  0
   -4.4510    2.6500   -0.2280 H   0  0  0  0  0  0  0  0  0  0  0  0
   -4.2110    0.7360   -1.9040 H   0  0  0  0  0  0  0  0  0  0  0  0
   -1.5500   -0.8110   -1.6570 H   0  0  0  0  0  0  0  0  0  0  0  0
  3 27  1  0  0  0  0
 12 22  1  0  0  0  0
 12 16  1  0  0  0  0
 13 22  1  0  0  0  0
 15 22  1  0  0  0  0
 16 27  1  0  0  0  0
  7 27  2  0  0  0  0
  6 27  2  0  0  0  0
 13 23  1  0  0  0  0
 11 15  1  0  0  0  0
 11 23  1  0  0  0  0
 17 23  1  0  0  0  0
  2 21  1  0  0  0  0
 17 26  1  0  0  0  0
  9 20  1  0  0  0  0
 20 24  1  0  0  0  0
  1 20  1  0  0  0  0
 21 26  1  0  0  0  0
 21 25  1  0  0  0  0
 19 26  1  0  0  0  0
 24 25  1  0  0  0  0
 10 24  1  0  0  0  0
 14 25  1  0  0  0  0
 14 19  2  0  0  0  0
 18 19  1  0  0  0  0
  8 18  2  0  0  0  0
  4 10  2  0  0  0  0
  5 18  1  0  0  0  0
  1 28  1  0  0  0  0
  1 29  1  0  0  0  0
  1 30  1  0  0  0  0
  2 31  1  0  0  0  0
  2 32  1  0  0  0  0
  2 33  1  0  0  0  0
  3 34  1  0  0  0  0
  3 35  1  0  0  0  0
  5 36  1  0  0  0  0
  9 37  1  0  0  0  0
 10 38  1  0  0  0  0
 11 39  1  0  0  0  0
 11 40  1  0  0  0  0
 12 41  1  0  0  0  0
 12 42  1  0  0  0  0
 13 43  1  0  0  0  0
 13 44  1  0  0  0  0
 15 45  1  0  0  0  0
 16 46  1  0  0  0  0
 20 47  1  0  0  0  0
 21 48  1  0  0  0  0
 22 49  1  0  0  0  0
 23 50  1  0  0  0  0
 24 51  1  0  0  0  0
 25 52  1  0  0  0  0
 26 53  1  0  0  0  0
M  END
> <OPENEYE_ISO_SMILES>
C[C@H]1[C@H](C(=N[C@H]1[C@H](C=O)[C@@H](C)O)C(=O)O)S[C@H]2C[C@H](NC2)CNS(=O)(=O)N

> <OPENEYE_INCHI>
InChI=1S/C15H26N4O6S2/c1-7-12(11(6-20)8(2)21)19-13(15(22)23)14(7)26-10-3-9(17-5-10)4-18-27(16,24)25/h6-12,14,17-18,21H,3-5H2,1-2H3,(H,22,23)(H2,16,24,25)/t7-,8-,9+,10+,11-,12-,14-/m1/s1

> <OPENEYE_INCHIKEY>
RBKUPZPTQNSPAV-QZOCKBNKSA-N

> <FORMULA>
C15H26N4O6S2

$$$$
