REMARK  12 active torsions:
REMARK  status: ('A' for Active; 'I' for Inactive)
REMARK    1  A    between atoms: N_3  and  S_27 
REMARK    2  A    between atoms: OXT_5  and  C_18 
REMARK    3  A    between atoms: O_9  and  C_20 
REMARK    4  A    between atoms: C_10  and  C_24 
REMARK    5  A    between atoms: C_12  and  C_22 
REMARK    6  A    between atoms: C_12  and  N_16 
REMARK    7  A    between atoms: N_16  and  S_27 
REMARK    8  A    between atoms: S_17  and  C_23 
REMARK    9  A    between atoms: S_17  and  C_26 
REMARK   10  A    between atoms: C_18  and  CA_19 
REMARK   11  A    between atoms: C_20  and  C_24 
REMARK   12  A    between atoms: C_24  and  C_25 
ROOT
HETATM    1  C   UNL     1      -2.179   1.572   0.712  1.00  0.00     0.014 C 
HETATM    2  N   UNL     1      -4.179  -0.726  -0.381  1.00  0.00    -0.280 NA
HETATM    3  CA  UNL     1      -3.096  -1.388  -0.272  1.00  0.00     0.116 C 
HETATM    4  C   UNL     1      -2.444   0.902  -0.638  1.00  0.00     0.027 C 
HETATM    5  C   UNL     1      -3.955   0.647  -0.848  1.00  0.00     0.127 C 
HETATM    6  C   UNL     1      -1.899  -0.547  -0.659  1.00  0.00     0.112 C 
ENDROOT
BRANCH   6   7
HETATM    7  S   UNL     1      -0.564  -0.743   0.554  1.00  0.00    -0.151 SA
BRANCH   7   8
HETATM    8  C   UNL     1       0.755   0.305  -0.119  1.00  0.00     0.078 C 
HETATM    9  C   UNL     1       1.366  -0.325  -1.388  1.00  0.00     0.285 C 
HETATM   10  N   UNL     1       2.822  -0.096  -1.336  1.00  0.00     0.090 N 
HETATM   11  C   UNL     1       3.135   0.667  -0.109  1.00  0.00     0.239 C 
HETATM   12  H   UNL     1       3.140   0.395  -2.158  1.00  0.00     0.316 HD
HETATM   13  C   UNL     1       1.963   0.361   0.857  1.00  0.00     0.054 C 
BRANCH  11  14
HETATM   14  C   UNL     1       4.459   0.191   0.491  1.00  0.00     0.169 C 
BRANCH  14  15
HETATM   15  N   UNL     1       5.534   0.381  -0.486  1.00  0.00    -0.301 N 
HETATM   16  H   UNL     1       5.320   0.550  -1.416  1.00  0.00     0.173 HD
BRANCH  15  17
HETATM   17  S   UNL     1       7.116   0.308  -0.001  1.00  0.00     0.312 S 
HETATM   18  O   UNL     1       7.221   1.137   1.149  1.00  0.00    -0.183 OA
HETATM   19  O   UNL     1       7.903   0.495  -1.169  1.00  0.00    -0.183 OA
BRANCH  17  20
HETATM   20  N   UNL     1       7.400  -1.241   0.512  1.00  0.00    -0.312 N 
HETATM   21  H   UNL     1       6.688  -1.899   0.485  1.00  0.00     0.170 HD
HETATM   22  H   UNL     1       8.279  -1.490   0.839  1.00  0.00     0.170 HD
ENDBRANCH  17  20
ENDBRANCH  15  17
ENDBRANCH  14  15
ENDBRANCH  11  14
ENDBRANCH   7   8
ENDBRANCH   6   7
BRANCH   3  23
HETATM   23  C   UNL     1      -3.019  -2.799   0.176  1.00  0.00     0.192 C 
HETATM   24  O   UNL     1      -1.955  -3.384   0.158  1.00  0.00    -0.645 OA
BRANCH  23  25
HETATM   25  OXT UNL     1      -4.128  -3.431   0.602  1.00  0.00    -0.772 OA
HETATM   26  HXT UNL     1      -4.028  -4.351   0.884  1.00  0.00     0.167 HD
ENDBRANCH  23  25
ENDBRANCH   3  23
BRANCH   5  27
HETATM   27  C   UNL     1      -4.780   1.632  -0.018  1.00  0.00     0.100 C 
BRANCH  27  28
HETATM   28  C   UNL     1      -4.590   1.336   1.448  1.00  0.00     0.240 C 
HETATM   29  O   UNL     1      -4.133   2.181   2.180  1.00  0.00    -0.306 OA
ENDBRANCH  27  28
BRANCH  27  30
HETATM   30  C   UNL     1      -6.260   1.489  -0.379  1.00  0.00     0.126 C 
HETATM   31  C   UNL     1      -6.453   1.790  -1.867  1.00  0.00     0.040 C 
BRANCH  30  32
HETATM   32  O   UNL     1      -6.691   0.155  -0.103  1.00  0.00    -0.395 OA
HETATM   33  H   UNL     1      -7.622  -0.008  -0.308  1.00  0.00     0.210 HD
ENDBRANCH  30  32
ENDBRANCH  27  30
ENDBRANCH   5  27
TORSDOF 12
