5VR
  -OEChem-07282321083D

 37 37  0     1  0  0  0  0  0999 V2000
   -5.2950   -1.5720   -0.0440 O   0  0  0  0  0  0  0  0  0  0  0  0
   -5.1660   -0.1560   -0.0460 S   0  0  0  0  0  0  0  0  0  0  0  0
   -5.9840    0.6970   -0.8350 O   0  0  0  0  0  0  0  0  0  0  0  0
   -5.3430    0.2940    1.3970 O   0  0  0  0  0  0  0  0  0  0  0  0
   -3.7270    0.1430   -0.4390 O   0  0  0  0  0  0  0  0  0  0  0  0
   -2.7490   -0.7830    0.1320 N   0  0  0  0  0  0  0  0  0  0  0  0
   -1.3850   -0.4340   -0.2880 C   0  0  2  0  0  0  0  0  0  0  0  0
   -0.5290   -1.7010   -0.3470 C   0  0  0  0  0  0  0  0  0  0  0  0
    0.8830   -1.3430   -0.8170 C   0  0  0  0  0  0  0  0  0  0  0  0
   -0.7740    0.5440    0.7210 C   0  0  0  0  0  0  0  0  0  0  0  0
    0.6300    0.7800    0.3590 N   0  0  0  0  0  0  0  0  0  0  0  0
    1.0930    2.0350    0.1880 C   0  0  0  0  0  0  0  0  0  0  0  0
    0.3290    2.9750    0.2370 O   0  0  0  0  0  0  0  0  0  0  0  0
    1.5200   -0.3760    0.1860 C   0  0  2  0  0  0  0  0  0  0  0  0
    2.8550    0.0880   -0.3370 C   0  0  0  0  0  0  0  0  0  0  0  0
    2.9050    0.8950   -1.2410 O   0  0  0  0  0  0  0  0  0  0  0  0
    3.9940   -0.3940    0.1990 N   0  0  0  0  0  0  0  0  0  0  0  0
    5.2350    0.0360   -0.2870 N   0  0  0  0  0  0  0  0  0  0  0  0
    6.3730   -0.4460    0.2490 C   0  0  0  0  0  0  0  0  0  0  0  0
    6.3230   -1.2530    1.1530 O   0  0  0  0  0  0  0  0  0  0  0  0
    7.7080    0.0180   -0.2750 C   0  0  0  0  0  0  0  0  0  0  0  0
   -2.8210   -0.8110    1.1380 H   0  0  0  0  0  0  0  0  0  0  0  0
   -1.4160    0.0320   -1.2730 H   0  0  0  0  0  0  0  0  0  0  0  0
   -0.4790   -2.1520    0.6440 H   0  0  0  0  0  0  0  0  0  0  0  0
   -0.9750   -2.4080   -1.0460 H   0  0  0  0  0  0  0  0  0  0  0  0
    1.4860   -2.2490   -0.8810 H   0  0  0  0  0  0  0  0  0  0  0  0
    0.8310   -0.8690   -1.7970 H   0  0  0  0  0  0  0  0  0  0  0  0
   -1.3220    1.4850    0.6950 H   0  0  0  0  0  0  0  0  0  0  0  0
   -0.8260    0.1160    1.7220 H   0  0  0  0  0  0  0  0  0  0  0  0
    2.1450    2.2020    0.0070 H   0  0  0  0  0  0  0  0  0  0  0  0
    1.6580   -0.8790    1.1430 H   0  0  0  0  0  0  0  0  0  0  0  0
    3.9540   -1.0400    0.9220 H   0  0  0  0  0  0  0  0  0  0  0  0
    5.2740    0.6820   -1.0110 H   0  0  0  0  0  0  0  0  0  0  0  0
    7.5530    0.7370   -1.0790 H   0  0  0  0  0  0  0  0  0  0  0  0
    8.2700    0.4900    0.5310 H   0  0  0  0  0  0  0  0  0  0  0  0
    8.2670   -0.8380   -0.6540 H   0  0  0  0  0  0  0  0  0  0  0  0
   -6.2310    0.1470    1.7490 H   0  0  0  0  0  0  0  0  0  0  0  0
  1  2  2  0  0  0  0
  2  5  1  0  0  0  0
  2  3  2  0  0  0  0
  2  4  1  0  0  0  0
  5  6  1  0  0  0  0
  7  8  1  0  0  0  0
  8  9  1  0  0  0  0
  6  7  1  0  0  0  0
  7 10  1  0  0  0  0
  9 14  1  0  0  0  0
 10 11  1  0  0  0  0
 17 18  1  0  0  0  0
 18 19  1  0  0  0  0
 15 17  1  0  0  0  0
 14 15  1  0  0  0  0
 11 14  1  0  0  0  0
 15 16  2  0  0  0  0
 11 12  1  0  0  0  0
 19 21  1  0  0  0  0
 19 20  2  0  0  0  0
 12 13  2  0  0  0  0
  6 22  1  0  0  0  0
  7 23  1  0  0  0  0
  8 24  1  0  0  0  0
  8 25  1  0  0  0  0
  9 26  1  0  0  0  0
  9 27  1  0  0  0  0
 10 28  1  0  0  0  0
 10 29  1  0  0  0  0
 12 30  1  0  0  0  0
 14 31  1  0  0  0  0
 17 32  1  0  0  0  0
 18 33  1  0  0  0  0
 21 34  1  0  0  0  0
 21 35  1  0  0  0  0
 21 36  1  0  0  0  0
  4 37  1  0  0  0  0
M  END
> <OPENEYE_ISO_SMILES>
CC(=O)NNC(=O)[C@@H]1CC[C@H](CN1C=O)NOS(=O)(=O)O

> <OPENEYE_INCHI>
InChI=1S/C9H16N4O7S/c1-6(15)10-11-9(16)8-3-2-7(4-13(8)5-14)12-20-21(17,18)19/h5,7-8,12H,2-4H2,1H3,(H,10,15)(H,11,16)(H,17,18,19)/t7-,8+/m1/s1

> <OPENEYE_INCHIKEY>
XVXACCGCTLPGSZ-SFYZADRCSA-N

> <FORMULA>
C9H16N4O7S

$$$$
