REMARK  8 active torsions:
REMARK  status: ('A' for Active; 'I' for Inactive)
REMARK    1  A    between atoms: S_2  and  O_5 
REMARK    2  A    between atoms: S_2  and  O_3 
REMARK    3  A    between atoms: O_5  and  N_6 
REMARK    4  A    between atoms: N_6  and  C_7 
REMARK    5  A    between atoms: N_11  and  C_12 
REMARK    6  A    between atoms: C_14  and  C_15 
REMARK       I    between atoms: C_15  and  N_17 
REMARK    7  A    between atoms: N_17  and  O_18 
REMARK    8  A    between atoms: O_18  and  C_19 
ROOT
HETATM    1  C   UNL     1       2.209  -0.807  -0.883  1.00  0.00     0.103 C 
HETATM    2  C   UNL     1       1.564   0.453  -1.463  1.00  0.00     0.026 C 
HETATM    3  C   UNL     1       0.069   0.208  -1.682  1.00  0.00     0.037 C 
HETATM    4  C   UNL     1       1.568  -1.128   0.471  1.00  0.00     0.148 C 
HETATM    5  N   UNL     1       0.113  -1.222   0.295  1.00  0.00    -0.344 N 
HETATM    6  C   UNL     1      -0.596  -0.101  -0.337  1.00  0.00     0.180 C 
ENDROOT
BRANCH   6   7
HETATM    7  C   UNL     1      -2.038  -0.477  -0.562  1.00  0.00     0.264 C 
HETATM    8  O   UNL     1      -2.317  -1.565  -1.020  1.00  0.00    -0.269 OA
HETATM    9  N   UNL     1      -3.018   0.395  -0.253  1.00  0.00    -0.233 N 
HETATM   10  H   UNL     1      -2.796   1.265   0.113  1.00  0.00     0.197 HD
BRANCH   9  11
HETATM   11  O   UNL     1      -4.373   0.041  -0.464  1.00  0.00    -0.270 OA
BRANCH  11  12
HETATM   12  C   UNL     1      -5.304   1.060  -0.094  1.00  0.00     0.182 C 
HETATM   13  C   UNL     1      -5.707   0.905   1.388  1.00  0.00     0.303 C 
HETATM   14  N   UNL     1      -7.149   1.263   1.424  1.00  0.00     0.086 N 
HETATM   15  C   UNL     1      -7.705   0.660   0.185  1.00  0.00     0.272 C 
HETATM   16  H   UNL     1      -7.596   0.881   2.244  1.00  0.00     0.315 HD
HETATM   17  C   UNL     1      -6.618   0.899  -0.886  1.00  0.00     0.066 C 
ENDBRANCH  11  12
ENDBRANCH   9  11
ENDBRANCH   6   7
BRANCH   5  18
HETATM   18  C   UNL     1      -0.559  -2.316   0.705  1.00  0.00     0.351 C 
HETATM   19  O   UNL     1       0.047  -3.274   1.136  1.00  0.00    -0.284 OA
ENDBRANCH   5  18
BRANCH   1  20
HETATM   20  N   UNL     1       3.650  -0.582  -0.702  1.00  0.00    -0.180 NA
HETATM   21  H   UNL     1       4.109  -1.420  -0.381  1.00  0.00     0.155 HD
BRANCH  20  22
HETATM   22  O   UNL     1       3.895   0.534   0.212  1.00  0.00    -0.167 OA
BRANCH  22  23
HETATM   23  S   UNL     1       5.369   0.828   0.449  1.00  0.00     0.257 S 
HETATM   24  O   UNL     1       5.424   1.786   1.497  1.00  0.00    -0.578 OA
HETATM   25  O   UNL     1       6.024  -0.432   0.512  1.00  0.00    -0.578 OA
BRANCH  23  26
HETATM   26  O   UNL     1       5.896   1.524  -0.798  1.00  0.00    -0.273 OA
HETATM   27  H   UNL     1       6.833   1.757  -0.752  1.00  0.00     0.234 HD
ENDBRANCH  23  26
ENDBRANCH  22  23
ENDBRANCH  20  22
ENDBRANCH   1  20
TORSDOF 8
