5VW
  -OEChem-07282321083D

 43 44  0     1  0  0  0  0  0999 V2000
    5.4240    1.7860    1.4970 O   0  0  0  0  0  0  0  0  0  0  0  0
    5.3690    0.8280    0.4490 S   0  0  0  0  0  0  0  0  0  0  0  0
    5.8960    1.5240   -0.7980 O   0  0  0  0  0  0  0  0  0  0  0  0
    6.0240   -0.4320    0.5120 O   0  0  0  0  0  0  0  0  0  0  0  0
    3.8950    0.5340    0.2120 O   0  0  0  0  0  0  0  0  0  0  0  0
    3.6500   -0.5820   -0.7020 N   0  0  0  0  0  0  0  0  0  0  0  0
    2.2090   -0.8070   -0.8830 C   0  0  2  0  0  0  0  0  0  0  0  0
    1.5640    0.4530   -1.4630 C   0  0  0  0  0  0  0  0  0  0  0  0
    0.0690    0.2080   -1.6820 C   0  0  0  0  0  0  0  0  0  0  0  0
    1.5680   -1.1280    0.4710 C   0  0  0  0  0  0  0  0  0  0  0  0
    0.1130   -1.2220    0.2950 N   0  0  0  0  0  0  0  0  0  0  0  0
   -0.5590   -2.3160    0.7050 C   0  0  0  0  0  0  0  0  0  0  0  0
    0.0470   -3.2740    1.1360 O   0  0  0  0  0  0  0  0  0  0  0  0
   -0.5960   -0.1010   -0.3370 C   0  0  2  0  0  0  0  0  0  0  0  0
   -2.0380   -0.4770   -0.5620 C   0  0  0  0  0  0  0  0  0  0  0  0
   -2.3170   -1.5650   -1.0200 O   0  0  0  0  0  0  0  0  0  0  0  0
   -3.0180    0.3950   -0.2530 N   0  0  0  0  0  0  0  0  0  0  0  0
   -4.3730    0.0410   -0.4640 O   0  0  0  0  0  0  0  0  0  0  0  0
   -5.3040    1.0600   -0.0940 C   0  0  1  0  0  0  0  0  0  0  0  0
   -6.6180    0.8990   -0.8860 C   0  0  0  0  0  0  0  0  0  0  0  0
   -7.7050    0.6600    0.1850 C   0  0  0  0  0  0  0  0  0  0  0  0
   -7.1490    1.2630    1.4240 N   0  0  0  0  0  0  0  0  0  0  0  0
   -5.7070    0.9050    1.3880 C   0  0  0  0  0  0  0  0  0  0  0  0
    4.1090   -1.4200   -0.3810 H   0  0  0  0  0  0  0  0  0  0  0  0
    2.0550   -1.6430   -1.5660 H   0  0  0  0  0  0  0  0  0  0  0  0
    1.6970    1.2820   -0.7680 H   0  0  0  0  0  0  0  0  0  0  0  0
    2.0350    0.6980   -2.4140 H   0  0  0  0  0  0  0  0  0  0  0  0
   -0.3860    1.0980   -2.1170 H   0  0  0  0  0  0  0  0  0  0  0  0
   -0.0660   -0.6370   -2.3570 H   0  0  0  0  0  0  0  0  0  0  0  0
    1.9540   -2.0780    0.8420 H   0  0  0  0  0  0  0  0  0  0  0  0
    1.7990   -0.3350    1.1820 H   0  0  0  0  0  0  0  0  0  0  0  0
   -1.6380   -2.3390    0.6500 H   0  0  0  0  0  0  0  0  0  0  0  0
   -0.5420    0.7760    0.3080 H   0  0  0  0  0  0  0  0  0  0  0  0
   -2.7960    1.2650    0.1130 H   0  0  0  0  0  0  0  0  0  0  0  0
   -4.8750    2.0460   -0.2700 H   0  0  0  0  0  0  0  0  0  0  0  0
   -6.8350    1.8060   -1.4490 H   0  0  0  0  0  0  0  0  0  0  0  0
   -6.5530    0.0420   -1.5560 H   0  0  0  0  0  0  0  0  0  0  0  0
   -8.6320    1.1580   -0.0970 H   0  0  0  0  0  0  0  0  0  0  0  0
   -7.8740   -0.4080    0.3230 H   0  0  0  0  0  0  0  0  0  0  0  0
   -7.5960    0.8810    2.2440 H   0  0  0  0  0  0  0  0  0  0  0  0
   -5.5620   -0.1240    1.7160 H   0  0  0  0  0  0  0  0  0  0  0  0
   -5.1310    1.5880    2.0120 H   0  0  0  0  0  0  0  0  0  0  0  0
    6.8330    1.7570   -0.7520 H   0  0  0  0  0  0  0  0  0  0  0  0
  2  4  2  0  0  0  0
  7 10  1  0  0  0  0
 10 11  1  0  0  0  0
  6  7  1  0  0  0  0
  7  8  1  0  0  0  0
  5  6  1  0  0  0  0
  2  5  1  0  0  0  0
  1  2  2  0  0  0  0
  2  3  1  0  0  0  0
 11 12  1  0  0  0  0
 11 14  1  0  0  0  0
  8  9  1  0  0  0  0
 12 13  2  0  0  0  0
 15 16  2  0  0  0  0
  9 14  1  0  0  0  0
 14 15  1  0  0  0  0
 15 17  1  0  0  0  0
 17 18  1  0  0  0  0
 18 19  1  0  0  0  0
 19 23  1  0  0  0  0
 22 23  1  0  0  0  0
 19 20  1  0  0  0  0
 21 22  1  0  0  0  0
 20 21  1  0  0  0  0
  6 24  1  0  0  0  0
  7 25  1  0  0  0  0
  8 26  1  0  0  0  0
  8 27  1  0  0  0  0
  9 28  1  0  0  0  0
  9 29  1  0  0  0  0
 10 30  1  0  0  0  0
 10 31  1  0  0  0  0
 12 32  1  0  0  0  0
 14 33  1  0  0  0  0
 17 34  1  0  0  0  0
 19 35  1  0  0  0  0
 20 36  1  0  0  0  0
 20 37  1  0  0  0  0
 21 38  1  0  0  0  0
 21 39  1  0  0  0  0
 22 40  1  0  0  0  0
 23 41  1  0  0  0  0
 23 42  1  0  0  0  0
  3 43  1  0  0  0  0
M  END
> <OPENEYE_ISO_SMILES>
C1C[C@H](N(C[C@@H]1NOS(=O)(=O)O)C=O)C(=O)NO[C@H]2CCNC2

> <OPENEYE_INCHI>
InChI=1S/C11H20N4O7S/c16-7-15-6-8(13-22-23(18,19)20)1-2-10(15)11(17)14-21-9-3-4-12-5-9/h7-10,12-13H,1-6H2,(H,14,17)(H,18,19,20)/t8-,9+,10+/m1/s1

> <OPENEYE_INCHIKEY>
RTYOMSYVLRQWIH-UTLUCORTSA-N

> <FORMULA>
C11H20N4O7S

$$$$
