602
  -OEChem-07282321083D

 43 44  0     1  0  0  0  0  0999 V2000
    5.7730    1.7300    1.4950 O   0  0  0  0  0  0  0  0  0  0  0  0
    5.6760    0.8870    0.3540 S   0  0  0  0  0  0  0  0  0  0  0  0
    6.0910    1.7330   -0.8410 O   0  0  0  0  0  0  0  0  0  0  0  0
    6.3740   -0.3450    0.2360 O   0  0  0  0  0  0  0  0  0  0  0  0
    4.1990    0.5620    0.1840 O   0  0  0  0  0  0  0  0  0  0  0  0
    3.9270   -0.4580   -0.8280 N   0  0  0  0  0  0  0  0  0  0  0  0
    2.4850   -0.7200   -0.9370 C   0  0  2  0  0  0  0  0  0  0  0  0
    1.7600    0.5690   -1.3320 C   0  0  0  0  0  0  0  0  0  0  0  0
    0.2630    0.2890   -1.4780 C   0  0  0  0  0  0  0  0  0  0  0  0
    1.9510   -1.2090    0.4120 C   0  0  0  0  0  0  0  0  0  0  0  0
    0.4900   -1.3410    0.3230 N   0  0  0  0  0  0  0  0  0  0  0  0
   -0.1160   -2.4990    0.6540 C   0  0  0  0  0  0  0  0  0  0  0  0
    0.5500   -3.4730    0.9350 O   0  0  0  0  0  0  0  0  0  0  0  0
   -0.2970   -0.1880   -0.1340 C   0  0  2  0  0  0  0  0  0  0  0  0
   -1.7380   -0.5950   -0.3030 C   0  0  0  0  0  0  0  0  0  0  0  0
   -2.0130   -1.6340   -0.8660 O   0  0  0  0  0  0  0  0  0  0  0  0
   -2.7210    0.1950    0.1710 N   0  0  0  0  0  0  0  0  0  0  0  0
   -4.0610   -0.1830    0.0140 N   0  0  0  0  0  0  0  0  0  0  0  0
   -5.0450    0.6070    0.4880 C   0  0  0  0  0  0  0  0  0  0  0  0
   -4.7700    1.6460    1.0500 O   0  0  0  0  0  0  0  0  0  0  0  0
   -6.4860    0.2000    0.3190 C   0  0  0  0  0  0  0  0  0  0  0  0
   -7.4890    1.2280    0.8720 C   0  0  0  0  0  0  0  0  0  0  0  0
   -8.2810    0.9640   -0.3500 N   0  0  0  0  0  0  0  0  0  0  0  0
   -7.0630    0.5260   -1.0700 C   0  0  0  0  0  0  0  0  0  0  0  0
    4.4350   -1.3070   -0.6320 H   0  0  0  0  0  0  0  0  0  0  0  0
    2.3110   -1.4830   -1.6960 H   0  0  0  0  0  0  0  0  0  0  0  0
    1.9150    1.3240   -0.5610 H   0  0  0  0  0  0  0  0  0  0  0  0
    2.1560    0.9320   -2.2810 H   0  0  0  0  0  0  0  0  0  0  0  0
   -0.2500    1.2020   -1.7820 H   0  0  0  0  0  0  0  0  0  0  0  0
    0.1080   -0.4830   -2.2320 H   0  0  0  0  0  0  0  0  0  0  0  0
    2.3920   -2.1770    0.6510 H   0  0  0  0  0  0  0  0  0  0  0  0
    2.2080   -0.4890    1.1900 H   0  0  0  0  0  0  0  0  0  0  0  0
   -1.1940   -2.5590    0.6680 H   0  0  0  0  0  0  0  0  0  0  0  0
   -0.2260    0.6160    0.5980 H   0  0  0  0  0  0  0  0  0  0  0  0
   -2.5020    1.0260    0.6210 H   0  0  0  0  0  0  0  0  0  0  0  0
   -4.2810   -1.0140   -0.4360 H   0  0  0  0  0  0  0  0  0  0  0  0
   -6.6800   -0.8220    0.6460 H   0  0  0  0  0  0  0  0  0  0  0  0
   -7.9810    0.9110    1.7910 H   0  0  0  0  0  0  0  0  0  0  0  0
   -7.0920    2.2420    0.9290 H   0  0  0  0  0  0  0  0  0  0  0  0
   -8.9150    0.1910   -0.2100 H   0  0  0  0  0  0  0  0  0  0  0  0
   -6.5410    1.3340   -1.5830 H   0  0  0  0  0  0  0  0  0  0  0  0
   -7.2170   -0.3500   -1.7010 H   0  0  0  0  0  0  0  0  0  0  0  0
    7.0220    1.9970   -0.8320 H   0  0  0  0  0  0  0  0  0  0  0  0
 19 20  2  0  0  0  0
 12 13  2  0  0  0  0
 22 23  1  0  0  0  0
 23 24  1  0  0  0  0
 11 12  1  0  0  0  0
 21 22  1  0  0  0  0
 15 16  2  0  0  0  0
 19 21  1  0  0  0  0
 18 19  1  0  0  0  0
 21 24  1  0  0  0  0
 10 11  1  0  0  0  0
 11 14  1  0  0  0  0
 15 17  1  0  0  0  0
 14 15  1  0  0  0  0
 17 18  1  0  0  0  0
  7 10  1  0  0  0  0
  9 14  1  0  0  0  0
  7  8  1  0  0  0  0
  6  7  1  0  0  0  0
  8  9  1  0  0  0  0
  1  2  2  0  0  0  0
  5  6  1  0  0  0  0
  2  5  1  0  0  0  0
  2  4  2  0  0  0  0
  2  3  1  0  0  0  0
  6 25  1  0  0  0  0
  7 26  1  0  0  0  0
  8 27  1  0  0  0  0
  8 28  1  0  0  0  0
  9 29  1  0  0  0  0
  9 30  1  0  0  0  0
 10 31  1  0  0  0  0
 10 32  1  0  0  0  0
 12 33  1  0  0  0  0
 14 34  1  0  0  0  0
 17 35  1  0  0  0  0
 18 36  1  0  0  0  0
 21 37  1  0  0  0  0
 22 38  1  0  0  0  0
 22 39  1  0  0  0  0
 23 40  1  0  0  0  0
 24 41  1  0  0  0  0
 24 42  1  0  0  0  0
  3 43  1  0  0  0  0
M  END
> <OPENEYE_ISO_SMILES>
C1C[C@H](N(C[C@@H]1NOS(=O)(=O)O)C=O)C(=O)NNC(=O)C2CNC2

> <OPENEYE_INCHI>
InChI=1S/C11H19N5O7S/c17-6-16-5-8(15-23-24(20,21)22)1-2-9(16)11(19)14-13-10(18)7-3-12-4-7/h6-9,12,15H,1-5H2,(H,13,18)(H,14,19)(H,20,21,22)/t8-,9+/m1/s1

> <OPENEYE_INCHIKEY>
HAUQKJYOKXFFAB-BDAKNGLRSA-N

> <FORMULA>
C11H19N5O7S

$$$$
