REMARK  8 active torsions:
REMARK  status: ('A' for Active; 'I' for Inactive)
REMARK    1  A    between atoms: S_2  and  O_5 
REMARK    2  A    between atoms: S_2  and  O_3 
REMARK    3  A    between atoms: O_5  and  N_6 
REMARK    4  A    between atoms: N_6  and  C_7 
REMARK    5  A    between atoms: N_11  and  C_12 
REMARK    6  A    between atoms: C_14  and  C_15 
REMARK       I    between atoms: C_15  and  N_17 
REMARK    7  A    between atoms: N_17  and  N_18 
REMARK       I    between atoms: N_18  and  C_19 
REMARK    8  A    between atoms: C_19  and  C_21 
ROOT
HETATM    1  C   UNL     1       2.485  -0.720  -0.937  1.00  0.00     0.103 C 
HETATM    2  C   UNL     1       1.760   0.569  -1.332  1.00  0.00     0.026 C 
HETATM    3  C   UNL     1       0.263   0.289  -1.478  1.00  0.00     0.037 C 
HETATM    4  C   UNL     1       1.951  -1.209   0.412  1.00  0.00     0.148 C 
HETATM    5  N   UNL     1       0.490  -1.341   0.323  1.00  0.00    -0.344 N 
HETATM    6  C   UNL     1      -0.297  -0.188  -0.134  1.00  0.00     0.180 C 
ENDROOT
BRANCH   6   7
HETATM    7  C   UNL     1      -1.738  -0.595  -0.303  1.00  0.00     0.259 C 
HETATM    8  O   UNL     1      -2.013  -1.634  -0.866  1.00  0.00    -0.269 OA
HETATM    9  N   UNL     1      -2.721   0.195   0.171  1.00  0.00    -0.266 N 
HETATM   10  H   UNL     1      -2.502   1.026   0.621  1.00  0.00     0.190 HD
BRANCH   9  11
HETATM   11  N   UNL     1      -4.061  -0.183   0.014  1.00  0.00    -0.267 N 
HETATM   12  C   UNL     1      -5.045   0.607   0.488  1.00  0.00     0.243 C 
HETATM   13  O   UNL     1      -4.770   1.646   1.050  1.00  0.00    -0.271 OA
HETATM   14  H   UNL     1      -4.281  -1.014  -0.436  1.00  0.00     0.190 HD
BRANCH  12  15
HETATM   15  C   UNL     1      -6.486   0.200   0.319  1.00  0.00     0.135 C 
HETATM   16  C   UNL     1      -7.489   1.228   0.872  1.00  0.00     0.285 C 
HETATM   17  N   UNL     1      -8.281   0.964  -0.350  1.00  0.00     0.085 N 
HETATM   18  C   UNL     1      -7.063   0.526  -1.070  1.00  0.00     0.285 C 
HETATM   19  H   UNL     1      -8.915   0.191  -0.210  1.00  0.00     0.315 HD
ENDBRANCH  12  15
ENDBRANCH   9  11
ENDBRANCH   6   7
BRANCH   5  20
HETATM   20  C   UNL     1      -0.116  -2.499   0.654  1.00  0.00     0.351 C 
HETATM   21  O   UNL     1       0.550  -3.473   0.935  1.00  0.00    -0.284 OA
ENDBRANCH   5  20
BRANCH   1  22
HETATM   22  N   UNL     1       3.927  -0.458  -0.828  1.00  0.00    -0.180 NA
HETATM   23  H   UNL     1       4.435  -1.307  -0.632  1.00  0.00     0.155 HD
BRANCH  22  24
HETATM   24  O   UNL     1       4.199   0.562   0.184  1.00  0.00    -0.167 OA
BRANCH  24  25
HETATM   25  S   UNL     1       5.676   0.887   0.354  1.00  0.00     0.257 S 
HETATM   26  O   UNL     1       5.773   1.730   1.495  1.00  0.00    -0.578 OA
HETATM   27  O   UNL     1       6.374  -0.345   0.236  1.00  0.00    -0.578 OA
BRANCH  25  28
HETATM   28  O   UNL     1       6.091   1.733  -0.841  1.00  0.00    -0.273 OA
HETATM   29  H   UNL     1       7.022   1.997  -0.832  1.00  0.00     0.234 HD
ENDBRANCH  25  28
ENDBRANCH  24  25
ENDBRANCH  22  24
ENDBRANCH   1  22
TORSDOF 8
