REMARK  9 active torsions:
REMARK  status: ('A' for Active; 'I' for Inactive)
REMARK       I    between atoms: N_1  and  C_18 
REMARK    1  A    between atoms: N_1  and  C_17 
REMARK    2  A    between atoms: C_3  and  C_18 
REMARK       I    between atoms: C_7  and  N_8 
REMARK    3  A    between atoms: C_7  and  C_17 
REMARK    4  A    between atoms: N_8  and  C_9 
REMARK    5  A    between atoms: C_9  and  C_13 
REMARK    6  A    between atoms: C_9  and  B_10 
REMARK    7  A    between atoms: B_10  and  O_12 
REMARK    8  A    between atoms: B_10  and  O_11 
REMARK    9  A    between atoms: C_13  and  C_14 
ROOT
HETATM    1  O   UNL     1      -1.618   0.986   0.221  1.00  0.00    -0.272 OA
HETATM    2  C   UNL     1      -1.839  -0.206   0.254  1.00  0.00     0.235 C 
HETATM    3  N   UNL     1      -3.108  -0.654   0.325  1.00  0.00    -0.358 N 
HETATM    4  H   UNL     1      -3.284  -1.607   0.351  1.00  0.00     0.162 HD
ENDROOT
BRANCH   2   5
HETATM    5  C   UNL     1      -0.695  -1.186   0.215  1.00  0.00     0.225 C 
BRANCH   5   6
HETATM    6  N   UNL     1       0.572  -0.454   0.139  1.00  0.00    -0.348 N 
HETATM    7  C   UNL     1       1.738  -1.129   0.088  1.00  0.00     0.253 C 
HETATM    8  O   UNL     1       1.738  -2.344   0.105  1.00  0.00    -0.268 OA
HETATM    9  H   UNL     1       0.572   0.516   0.121  1.00  0.00     0.163 HD
BRANCH   7  10
HETATM   10  C   UNL     1       3.016  -0.391   0.011  1.00  0.00     0.055 A 
HETATM   11  C   UNL     1       3.020   1.005  -0.010  1.00  0.00     0.042 A 
HETATM   12  C   UNL     1       4.217   1.688  -0.093  1.00  0.00     0.035 A 
HETATM   13 CL   UNL     1       4.223   3.424  -0.119  1.00  0.00    -0.084 Cl
HETATM   14  C   UNL     1       5.413   0.992  -0.140  1.00  0.00     0.025 A 
HETATM   15  C   UNL     1       5.417  -0.391  -0.115  1.00  0.00     0.026 A 
HETATM   16  C   UNL     1       4.227  -1.087  -0.042  1.00  0.00     0.049 A 
HETATM   17 CL   UNL     1       4.233  -2.823  -0.018  1.00  0.00    -0.083 Cl
ENDBRANCH   7  10
ENDBRANCH   5   6
ENDBRANCH   2   5
BRANCH   3  18
HETATM   18  C   UNL     1      -4.220   0.299   0.362  1.00  0.00     0.111 C 
BRANCH  18  19
HETATM   19  C   UNL     1      -5.320  -0.163  -0.596  1.00  0.00     0.024 C 
BRANCH  19  20
HETATM   20  C   UNL     1      -4.790  -0.135  -2.031  1.00  0.00    -0.021 C 
HETATM   21  C   UNL     1      -4.506   1.311  -2.442  1.00  0.00     0.009 C 
HETATM   22  C   UNL     1      -5.836  -0.737  -2.972  1.00  0.00     0.009 C 
ENDBRANCH  19  20
ENDBRANCH  18  19
BRANCH  18  23
HETATM   23  B   UNL     1      -4.795   0.374   1.821  1.00  0.00     0.515 B 
BRANCH  23  24
HETATM   24  O   UNL     1      -4.831  -0.791   2.632  1.00  0.00    -0.436 OA
HETATM   25  H   UNL     1      -4.480  -1.582   2.199  1.00  0.00     0.184 HD
ENDBRANCH  23  24
BRANCH  23  26
HETATM   26  O   UNL     1      -5.280   1.608   2.330  1.00  0.00    -0.436 OA
HETATM   27  H   UNL     1      -5.285   2.326   1.683  1.00  0.00     0.184 HD
ENDBRANCH  23  26
ENDBRANCH  18  23
ENDBRANCH   3  18
TORSDOF 9
