6V8
  -OEChem-07282321083D

 42 42  0     1  0  0  0  0  0999 V2000
    0.5720   -0.4540    0.1390 N   0  0  0  0  0  0  0  0  0  0  0  0
    5.4170   -0.3910   -0.1150 C   0  0  0  0  0  0  0  0  0  0  0  0
    3.0160   -0.3910    0.0110 C   0  0  0  0  0  0  0  0  0  0  0  0
    4.2170    1.6880   -0.0930 C   0  0  0  0  0  0  0  0  0  0  0  0
    5.4130    0.9920   -0.1400 C   0  0  0  0  0  0  0  0  0  0  0  0
   -1.6180    0.9860    0.2210 O   0  0  0  0  0  0  0  0  0  0  0  0
   -1.8390   -0.2060    0.2540 C   0  0  0  0  0  0  0  0  0  0  0  0
   -3.1080   -0.6540    0.3250 N   0  0  0  0  0  0  0  0  0  0  0  0
   -4.2200    0.2990    0.3620 C   0  0  2  0  0  0  0  0  0  0  0  0
   -4.7950    0.3740    1.8210 B   0  0  0  0  0  0  0  0  0  0  0  0
   -5.2800    1.6080    2.3300 O   0  0  0  0  0  0  0  0  0  0  0  0
   -4.8310   -0.7910    2.6320 O   0  0  0  0  0  0  0  0  0  0  0  0
   -5.3200   -0.1630   -0.5960 C   0  0  0  0  0  0  0  0  0  0  0  0
   -4.7900   -0.1350   -2.0310 C   0  0  0  0  0  0  0  0  0  0  0  0
   -5.8360   -0.7370   -2.9720 C   0  0  0  0  0  0  0  0  0  0  0  0
   -4.5060    1.3110   -2.4420 C   0  0  0  0  0  0  0  0  0  0  0  0
   -0.6950   -1.1860    0.2150 C   0  0  0  0  0  0  0  0  0  0  0  0
    1.7380   -1.1290    0.0880 C   0  0  0  0  0  0  0  0  0  0  0  0
    1.7380   -2.3440    0.1050 O   0  0  0  0  0  0  0  0  0  0  0  0
    4.2270   -1.0870   -0.0420 C   0  0  0  0  0  0  0  0  0  0  0  0
    4.2330   -2.8230   -0.0180 Cl  0  0  0  0  0  0  0  0  0  0  0  0
    4.2230    3.4240   -0.1190 Cl  0  0  0  0  0  0  0  0  0  0  0  0
    3.0200    1.0050   -0.0100 C   0  0  0  0  0  0  0  0  0  0  0  0
    0.5720    0.5160    0.1210 H   0  0  0  0  0  0  0  0  0  0  0  0
    6.3530   -0.9280   -0.1560 H   0  0  0  0  0  0  0  0  0  0  0  0
    6.3470    1.5310   -0.1960 H   0  0  0  0  0  0  0  0  0  0  0  0
   -3.2840   -1.6070    0.3510 H   0  0  0  0  0  0  0  0  0  0  0  0
   -3.8650    1.2840    0.0600 H   0  0  0  0  0  0  0  0  0  0  0  0
   -5.2850    2.3260    1.6830 H   0  0  0  0  0  0  0  0  0  0  0  0
   -4.4800   -1.5820    2.1990 H   0  0  0  0  0  0  0  0  0  0  0  0
   -5.6220   -1.1790   -0.3400 H   0  0  0  0  0  0  0  0  0  0  0  0
   -6.1780    0.5030   -0.5120 H   0  0  0  0  0  0  0  0  0  0  0  0
   -3.8700   -0.7170   -2.0910 H   0  0  0  0  0  0  0  0  0  0  0  0
   -6.7560   -0.1550   -2.9130 H   0  0  0  0  0  0  0  0  0  0  0  0
   -5.4580   -0.7170   -3.9950 H   0  0  0  0  0  0  0  0  0  0  0  0
   -6.0380   -1.7670   -2.6800 H   0  0  0  0  0  0  0  0  0  0  0  0
   -5.4030    1.9140   -2.2920 H   0  0  0  0  0  0  0  0  0  0  0  0
   -3.6950    1.7090   -1.8330 H   0  0  0  0  0  0  0  0  0  0  0  0
   -4.2200    1.3410   -3.4930 H   0  0  0  0  0  0  0  0  0  0  0  0
   -0.7960   -1.8280   -0.6600 H   0  0  0  0  0  0  0  0  0  0  0  0
   -0.7080   -1.7960    1.1180 H   0  0  0  0  0  0  0  0  0  0  0  0
    2.0880    1.5490    0.0270 H   0  0  0  0  0  0  0  0  0  0  0  0
 14 16  1  0  0  0  0
 14 15  1  0  0  0  0
 13 14  1  0  0  0  0
 18 19  2  0  0  0  0
  9 13  1  0  0  0  0
  4 22  1  0  0  0  0
  4  5  2  0  0  0  0
  2  5  1  0  0  0  0
  4 23  1  0  0  0  0
  2 20  2  0  0  0  0
  3 23  2  0  0  0  0
 20 21  1  0  0  0  0
  3 20  1  0  0  0  0
  3 18  1  0  0  0  0
  1 18  1  0  0  0  0
  8  9  1  0  0  0  0
  9 10  1  0  0  0  0
  7  8  1  0  0  0  0
 10 12  1  0  0  0  0
  1 17  1  0  0  0  0
  7 17  1  0  0  0  0
  6  7  2  0  0  0  0
 10 11  1  0  0  0  0
  1 24  1  0  0  0  0
  2 25  1  0  0  0  0
  5 26  1  0  0  0  0
  8 27  1  0  0  0  0
  9 28  1  0  0  0  0
 11 29  1  0  0  0  0
 12 30  1  0  0  0  0
 13 31  1  0  0  0  0
 13 32  1  0  0  0  0
 14 33  1  0  0  0  0
 15 34  1  0  0  0  0
 15 35  1  0  0  0  0
 15 36  1  0  0  0  0
 16 37  1  0  0  0  0
 16 38  1  0  0  0  0
 16 39  1  0  0  0  0
 17 40  1  0  0  0  0
 17 41  1  0  0  0  0
 23 42  1  0  0  0  0
M  END
> <OPENEYE_ISO_SMILES>
B([C@H](CC(C)C)NC(=O)CNC(=O)c1cc(ccc1Cl)Cl)(O)O

> <OPENEYE_INCHI>
InChI=1S/C14H19BCl2N2O4/c1-8(2)5-12(15(22)23)19-13(20)7-18-14(21)10-6-9(16)3-4-11(10)17/h3-4,6,8,12,22-23H,5,7H2,1-2H3,(H,18,21)(H,19,20)/t12-/m0/s1

> <OPENEYE_INCHIKEY>
MXAYKZJJDUDWDS-LBPRGKRZSA-N

> <FORMULA>
C14H19BCl2N2O4

$$$$
