REMARK  6 active torsions:
REMARK  status: ('A' for Active; 'I' for Inactive)
REMARK    1  A    between atoms: C_3  and  C_5 
REMARK    2  A    between atoms: C_3  and  O_4 
REMARK    3  A    between atoms: C_6  and  C_7 
REMARK    4  A    between atoms: C_11  and  B_12 
REMARK    5  A    between atoms: B_12  and  O_13 
REMARK    6  A    between atoms: B_12  and  O_14 
ROOT
HETATM    1  C   UNL     1       2.898  -0.501   0.112  1.00  0.00     0.001 A 
HETATM    2  C   UNL     1       0.490  -0.637  -0.082  1.00  0.00    -0.035 A 
HETATM    3  C   UNL     1       0.582  -2.029  -0.112  1.00  0.00     0.011 A 
HETATM    4  C   UNL     1       1.816  -2.641  -0.020  1.00  0.00     0.001 A 
HETATM    5  C   UNL     1       2.969  -1.881   0.086  1.00  0.00    -0.000 A 
HETATM    6  C   UNL     1       1.663   0.134   0.032  1.00  0.00    -0.022 A 
ENDROOT
BRANCH   2   7
HETATM    7  C   UNL     1      -0.823   0.021  -0.168  1.00  0.00     0.018 C 
HETATM    8  C   UNL     1      -1.949  -0.689   0.048  1.00  0.00     0.082 C 
BRANCH   8   9
HETATM    9  C   UNL     1      -3.256  -0.034  -0.038  1.00  0.00     0.165 C 
HETATM   10  O   UNL     1      -3.326   1.150  -0.305  1.00  0.00    -0.647 OA
BRANCH   9  11
HETATM   11  O   UNL     1      -4.382  -0.745   0.178  1.00  0.00    -0.773 OA
HETATM   12  H   UNL     1      -5.221  -0.269   0.110  1.00  0.00     0.167 HD
ENDBRANCH   9  11
ENDBRANCH   8   9
ENDBRANCH   2   7
BRANCH   6  13
HETATM   13  B   UNL     1       1.578   1.702   0.068  1.00  0.00     0.530 B 
BRANCH  13  14
HETATM   14  O   UNL     1       0.406   2.338   0.556  1.00  0.00    -0.433 OA
HETATM   15  H   UNL     1       0.446   3.303   0.539  1.00  0.00     0.185 HD
ENDBRANCH  13  14
BRANCH  13  16
HETATM   16  O   UNL     1       2.673   2.483  -0.387  1.00  0.00    -0.433 OA
HETATM   17  H   UNL     1       2.527   3.437  -0.326  1.00  0.00     0.185 HD
ENDBRANCH  13  16
ENDBRANCH   6  13
TORSDOF 6
