6YV
  -OEChem-07282321083D

 23 23  0     0  0  0  0  0  0999 V2000
    2.8980   -0.5010    0.1120 C   0  0  0  0  0  0  0  0  0  0  0  0
   -3.3260    1.1500   -0.3050 O   0  0  0  0  0  0  0  0  0  0  0  0
   -3.2560   -0.0340   -0.0380 C   0  0  0  0  0  0  0  0  0  0  0  0
   -4.3820   -0.7450    0.1780 O   0  0  0  0  0  0  0  0  0  0  0  0
   -1.9490   -0.6890    0.0480 C   0  0  0  0  0  0  0  0  0  0  0  0
   -0.8230    0.0210   -0.1680 C   0  0  0  0  0  0  0  0  0  0  0  0
    0.4900   -0.6370   -0.0820 C   0  0  0  0  0  0  0  0  0  0  0  0
    0.5820   -2.0290   -0.1120 C   0  0  0  0  0  0  0  0  0  0  0  0
    1.8160   -2.6410   -0.0200 C   0  0  0  0  0  0  0  0  0  0  0  0
    2.9690   -1.8810    0.0860 C   0  0  0  0  0  0  0  0  0  0  0  0
    1.6630    0.1340    0.0320 C   0  0  0  0  0  0  0  0  0  0  0  0
    1.5780    1.7020    0.0680 B   0  0  0  0  0  0  0  0  0  0  0  0
    0.4060    2.3380    0.5560 O   0  0  0  0  0  0  0  0  0  0  0  0
    2.6730    2.4830   -0.3870 O   0  0  0  0  0  0  0  0  0  0  0  0
    3.8010    0.0850    0.2000 H   0  0  0  0  0  0  0  0  0  0  0  0
   -5.2210   -0.2690    0.1100 H   0  0  0  0  0  0  0  0  0  0  0  0
   -1.8870   -1.7410    0.2840 H   0  0  0  0  0  0  0  0  0  0  0  0
   -0.8860    1.0730   -0.4050 H   0  0  0  0  0  0  0  0  0  0  0  0
   -0.3130   -2.6280   -0.1990 H   0  0  0  0  0  0  0  0  0  0  0  0
    1.8850   -3.7190   -0.0440 H   0  0  0  0  0  0  0  0  0  0  0  0
    3.9300   -2.3700    0.1490 H   0  0  0  0  0  0  0  0  0  0  0  0
    0.4460    3.3030    0.5390 H   0  0  0  0  0  0  0  0  0  0  0  0
    2.5270    3.4370   -0.3260 H   0  0  0  0  0  0  0  0  0  0  0  0
  9 10  2  0  0  0  0
  1 10  1  0  0  0  0
  8  9  1  0  0  0  0
  1 11  2  0  0  0  0
  7  8  2  0  0  0  0
  7 11  1  0  0  0  0
 11 12  1  0  0  0  0
  6  7  1  0  0  0  0
 12 13  1  0  0  0  0
 12 14  1  0  0  0  0
  5  6  2  0  0  0  0
  3  5  1  0  0  0  0
  2  3  2  0  0  0  0
  3  4  1  0  0  0  0
  1 15  1  0  0  0  0
  4 16  1  0  0  0  0
  5 17  1  0  0  0  0
  6 18  1  0  0  0  0
  8 19  1  0  0  0  0
  9 20  1  0  0  0  0
 10 21  1  0  0  0  0
 13 22  1  0  0  0  0
 14 23  1  0  0  0  0
M  END
> <OPENEYE_ISO_SMILES>
B(c1ccccc1/C=C/C(=O)O)(O)O

> <OPENEYE_INCHI>
InChI=1S/C9H9BO4/c11-9(12)6-5-7-3-1-2-4-8(7)10(13)14/h1-6,13-14H,(H,11,12)/b6-5+

> <OPENEYE_INCHIKEY>
OPFDGNUJQALQFL-AATRIKPKSA-N

> <FORMULA>
C9H9BO4

$$$$
