7EP
  -OEChem-07282321083D

 48 49  0     1  0  0  0  0  0999 V2000
   -0.6090    1.8420   -1.5110 C   0  0  0  0  0  0  0  0  0  0  0  0
    0.7000    0.1260   -0.4000 N   0  0  0  0  0  0  0  0  0  0  0  0
    0.2110    2.6120   -1.0720 O   0  0  0  0  0  0  0  0  0  0  0  0
   -0.4900    0.3680   -1.2210 C   0  0  1  0  0  0  0  0  0  0  0  0
   -1.7340   -0.1070   -0.4680 C   0  0  2  0  0  0  0  0  0  0  0  0
    4.3190    3.1330    0.5350 C   0  0  0  0  0  0  0  0  0  0  0  0
    3.2130   -3.9340    0.0610 C   0  0  0  0  0  0  0  0  0  0  0  0
   -4.6480    1.9500    1.2470 C   0  0  0  0  0  0  0  0  0  0  0  0
   -4.2460   -0.3960    2.0570 C   0  0  0  0  0  0  0  0  0  0  0  0
   -5.9310   -1.5270    0.0930 O   0  0  0  0  0  0  0  0  0  0  0  0
    2.0040    0.0430   -2.1970 O   0  0  0  0  0  0  0  0  0  0  0  0
   -3.9490   -2.2270   -0.5880 O   0  0  0  0  0  0  0  0  0  0  0  0
    5.3540   -0.7230    1.3960 C   0  0  0  0  0  0  0  0  0  0  0  0
    4.9820    0.5740    1.0900 C   0  0  0  0  0  0  0  0  0  0  0  0
    4.6120   -1.7930    0.9320 C   0  0  0  0  0  0  0  0  0  0  0  0
   -2.9680    0.1220   -1.2710 N   0  0  0  0  0  0  0  0  0  0  0  0
    3.4970    2.0860    0.0160 O   0  0  0  0  0  0  0  0  0  0  0  0
    2.7590   -2.6280   -0.3000 O   0  0  0  0  0  0  0  0  0  0  0  0
   -2.0700    0.9580    0.9960 S   0  0  0  0  0  0  0  0  0  0  0  0
   -4.6710   -1.2990   -0.3100 C   0  0  0  0  0  0  0  0  0  0  0  0
    1.9040   -0.0230   -0.9860 C   0  0  0  0  0  0  0  0  0  0  0  0
    3.8590    0.8130    0.3150 C   0  0  0  0  0  0  0  0  0  0  0  0
    3.4860   -1.5760    0.1540 C   0  0  0  0  0  0  0  0  0  0  0  0
    3.0990   -0.2650   -0.1610 C   0  0  0  0  0  0  0  0  0  0  0  0
   -4.1580    0.1140   -0.4160 C   0  0  1  0  0  0  0  0  0  0  0  0
   -3.8810    0.6490    1.0020 C   0  0  0  0  0  0  0  0  0  0  0  0
   -1.4310    2.2100   -2.1070 H   0  0  0  0  0  0  0  0  0  0  0  0
    0.6200    0.0740    0.5650 H   0  0  0  0  0  0  0  0  0  0  0  0
   -0.4010   -0.1810   -2.1590 H   0  0  0  0  0  0  0  0  0  0  0  0
   -1.6410   -1.1540   -0.1800 H   0  0  0  0  0  0  0  0  0  0  0  0
    3.9190    4.0980    0.2230 H   0  0  0  0  0  0  0  0  0  0  0  0
    4.3320    3.0800    1.6240 H   0  0  0  0  0  0  0  0  0  0  0  0
    5.3340    3.0210    0.1540 H   0  0  0  0  0  0  0  0  0  0  0  0
    4.2220   -4.0870   -0.3220 H   0  0  0  0  0  0  0  0  0  0  0  0
    3.2190   -4.0290    1.1470 H   0  0  0  0  0  0  0  0  0  0  0  0
    2.5450   -4.6820   -0.3660 H   0  0  0  0  0  0  0  0  0  0  0  0
   -4.4060    2.3340    2.2380 H   0  0  0  0  0  0  0  0  0  0  0  0
   -4.3660    2.6850    0.4930 H   0  0  0  0  0  0  0  0  0  0  0  0
   -5.7190    1.7570    1.1830 H   0  0  0  0  0  0  0  0  0  0  0  0
   -5.3130   -0.6120    2.0020 H   0  0  0  0  0  0  0  0  0  0  0  0
   -3.6810   -1.3100    1.8740 H   0  0  0  0  0  0  0  0  0  0  0  0
   -4.0040   -0.0120    3.0480 H   0  0  0  0  0  0  0  0  0  0  0  0
   -6.2150   -2.4500    0.1460 H   0  0  0  0  0  0  0  0  0  0  0  0
    6.2330   -0.9000    1.9970 H   0  0  0  0  0  0  0  0  0  0  0  0
    5.5690    1.4020    1.4580 H   0  0  0  0  0  0  0  0  0  0  0  0
    4.9110   -2.8010    1.1760 H   0  0  0  0  0  0  0  0  0  0  0  0
   -2.9040    0.9820   -1.7940 H   0  0  0  0  0  0  0  0  0  0  0  0
   -4.9270    0.7330   -0.8780 H   0  0  0  0  0  0  0  0  0  0  0  0
  1  3  2  0  0  0  0
  1  4  1  0  0  0  0
  1 27  1  0  0  0  0
  2 21  1  0  0  0  0
  2  4  1  0  0  0  0
  2 28  1  0  0  0  0
  4  5  1  0  0  0  0
  4 29  1  0  0  0  0
  5 19  1  0  0  0  0
  5 16  1  0  0  0  0
  5 30  1  0  0  0  0
  6 17  1  0  0  0  0
  6 31  1  0  0  0  0
  6 32  1  0  0  0  0
  6 33  1  0  0  0  0
  7 18  1  0  0  0  0
  7 34  1  0  0  0  0
  7 35  1  0  0  0  0
  7 36  1  0  0  0  0
  8 26  1  0  0  0  0
  8 37  1  0  0  0  0
  8 38  1  0  0  0  0
  8 39  1  0  0  0  0
  9 26  1  0  0  0  0
  9 40  1  0  0  0  0
  9 41  1  0  0  0  0
  9 42  1  0  0  0  0
 10 20  1  0  0  0  0
 10 43  1  0  0  0  0
 11 21  2  0  0  0  0
 12 20  2  0  0  0  0
 13 15  2  0  0  0  0
 13 14  1  0  0  0  0
 13 44  1  0  0  0  0
 14 22  2  0  0  0  0
 14 45  1  0  0  0  0
 15 23  1  0  0  0  0
 15 46  1  0  0  0  0
 16 25  1  0  0  0  0
 16 47  1  0  0  0  0
 17 22  1  0  0  0  0
 18 23  1  0  0  0  0
 19 26  1  0  0  0  0
 20 25  1  0  0  0  0
 21 24  1  0  0  0  0
 22 24  1  0  0  0  0
 23 24  2  0  0  0  0
 25 26  1  0  0  0  0
 25 48  1  0  0  0  0
M  END
> <OPENEYE_ISO_SMILES>
CC1([C@@H](N[C@H](S1)[C@@H](C=O)NC(=O)c2c(cccc2OC)OC)C(=O)O)C

> <OPENEYE_INCHI>
InChI=1S/C17H22N2O6S/c1-17(2)13(16(22)23)19-15(26-17)9(8-20)18-14(21)12-10(24-3)6-5-7-11(12)25-4/h5-9,13,15,19H,1-4H3,(H,18,21)(H,22,23)/t9-,13+,15-/m1/s1

> <OPENEYE_INCHIKEY>
SKOKQNRJVBPEBM-ZDBHGNHJSA-N

> <FORMULA>
C17H22N2O6S

$$$$
