REMARK  8 active torsions:
REMARK  status: ('A' for Active; 'I' for Inactive)
REMARK    1  A    between atoms: C_1  and  CA_4 
REMARK       I    between atoms: N_2  and  C_21 
REMARK    2  A    between atoms: N_2  and  CA_4 
REMARK    3  A    between atoms: CA_4  and  C_5 
REMARK    4  A    between atoms: O_10  and  C_20 
REMARK    5  A    between atoms: O_17  and  C_22 
REMARK    6  A    between atoms: O_18  and  C_23 
REMARK    7  A    between atoms: C_20  and  CA_25 
REMARK    8  A    between atoms: C_21  and  C_24 
ROOT
HETATM    1  CA  UNL     1      -0.490   0.368  -1.221  1.00  0.00     0.189 C 
ENDROOT
BRANCH   1   2
HETATM    2  C   UNL     1      -0.609   1.842  -1.511  1.00  0.00     0.259 C 
HETATM    3  O   UNL     1       0.211   2.612  -1.072  1.00  0.00    -0.305 OA
ENDBRANCH   1   2
BRANCH   1   4
HETATM    4  N   UNL     1       0.700   0.126  -0.400  1.00  0.00    -0.343 N 
HETATM    5  C   UNL     1       1.904  -0.023  -0.986  1.00  0.00     0.258 C 
HETATM    6  O   UNL     1       2.004   0.043  -2.197  1.00  0.00    -0.267 OA
HETATM    7  H   UNL     1       0.620   0.074   0.565  1.00  0.00     0.163 HD
BRANCH   5   8
HETATM    8  C   UNL     1       3.099  -0.265  -0.161  1.00  0.00     0.098 A 
HETATM    9  C   UNL     1       3.859   0.813   0.315  1.00  0.00     0.086 A 
HETATM   10  C   UNL     1       4.982   0.574   1.090  1.00  0.00     0.038 A 
HETATM   11  C   UNL     1       5.354  -0.723   1.396  1.00  0.00     0.005 A 
HETATM   12  C   UNL     1       4.612  -1.793   0.932  1.00  0.00     0.038 A 
HETATM   13  C   UNL     1       3.486  -1.576   0.154  1.00  0.00     0.086 A 
BRANCH   9  14
HETATM   14  O   UNL     1       3.497   2.086   0.016  1.00  0.00    -0.355 OA
HETATM   15  C   UNL     1       4.319   3.133   0.535  1.00  0.00     0.210 C 
ENDBRANCH   9  14
BRANCH  13  16
HETATM   16  O   UNL     1       2.759  -2.628  -0.300  1.00  0.00    -0.355 OA
HETATM   17  C   UNL     1       3.213  -3.934   0.061  1.00  0.00     0.210 C 
ENDBRANCH  13  16
ENDBRANCH   5   8
ENDBRANCH   1   4
BRANCH   1  18
HETATM   18  C   UNL     1      -1.734  -0.107  -0.468  1.00  0.00     0.312 C 
HETATM   19  S   UNL     1      -2.070   0.958   0.996  1.00  0.00    -0.119 SA
HETATM   20  C   UNL     1      -3.881   0.649   1.002  1.00  0.00     0.044 C 
HETATM   21  C   UNL     1      -4.648   1.950   1.247  1.00  0.00     0.029 C 
HETATM   22  C   UNL     1      -4.246  -0.396   2.057  1.00  0.00     0.029 C 
HETATM   23  CA  UNL     1      -4.158   0.114  -0.416  1.00  0.00     0.336 C 
HETATM   24  N   UNL     1      -2.968   0.122  -1.271  1.00  0.00     0.116 N 
HETATM   25  H   UNL     1      -2.904   0.982  -1.794  1.00  0.00     0.318 HD
BRANCH  23  26
HETATM   26  C   UNL     1      -4.671  -1.299  -0.310  1.00  0.00     0.175 C 
HETATM   27  OXT UNL     1      -3.949  -2.227  -0.588  1.00  0.00    -0.648 OA
BRANCH  26  28
HETATM   28  O   UNL     1      -5.931  -1.527   0.093  1.00  0.00    -0.775 OA
HETATM   29  H   UNL     1      -6.215  -2.450   0.146  1.00  0.00     0.167 HD
ENDBRANCH  26  28
ENDBRANCH  23  26
ENDBRANCH   1  18
TORSDOF 8
