7TC
  -OEChem-07282321083D

 31 31  0     1  0  0  0  0  0999 V2000
    0.0460    1.5430   -1.0470 C   0  0  1  0  0  0  0  0  0  0  0  0
   -0.5660    2.5850   -0.1090 C   0  0  0  0  0  0  0  0  0  0  0  0
    0.2440   -0.7810   -0.4810 N   0  0  0  0  0  0  0  0  0  0  0  0
   -1.3230    0.5310    1.4310 C   0  0  0  0  0  0  0  0  0  0  0  0
   -1.6900    1.4640    2.1040 O   0  0  0  0  0  0  0  0  0  0  0  0
    1.4460    1.1710   -0.5990 C   0  0  0  0  0  0  0  0  0  0  0  0
    2.4950    1.9830   -0.5040 C   0  0  0  0  0  0  0  0  0  0  0  0
   -1.8770    0.3390    0.0430 C   0  0  1  0  0  0  0  0  0  0  0  0
   -0.7230    0.2120   -0.9530 C   0  0  1  0  0  0  0  0  0  0  0  0
    1.4110   -0.2680   -0.2900 C   0  0  0  0  0  0  0  0  0  0  0  0
   -2.7260   -0.9330    0.0040 C   0  0  1  0  0  0  0  0  0  0  0  0
   -3.2880   -1.1290   -1.4050 C   0  0  0  0  0  0  0  0  0  0  0  0
    2.5880   -1.0410    0.1900 C   0  0  0  0  0  0  0  0  0  0  0  0
   -1.9160   -2.0580    0.3540 O   0  0  0  0  0  0  0  0  0  0  0  0
    2.4690   -2.3560    0.4490 O   0  0  0  0  0  0  0  0  0  0  0  0
    3.6560   -0.4860    0.3470 O   0  0  0  0  0  0  0  0  0  0  0  0
    0.0550    1.9100   -2.0730 H   0  0  0  0  0  0  0  0  0  0  0  0
   -0.4020    2.2840    0.9260 H   0  0  0  0  0  0  0  0  0  0  0  0
   -0.0950    3.5530   -0.2850 H   0  0  0  0  0  0  0  0  0  0  0  0
   -1.6360    2.6620   -0.2990 H   0  0  0  0  0  0  0  0  0  0  0  0
   -0.5980   -0.1660    1.8250 H   0  0  0  0  0  0  0  0  0  0  0  0
    3.4470    1.5970   -0.1700 H   0  0  0  0  0  0  0  0  0  0  0  0
    2.3950    3.0270   -0.7600 H   0  0  0  0  0  0  0  0  0  0  0  0
   -2.4950    1.1960   -0.2240 H   0  0  0  0  0  0  0  0  0  0  0  0
   -1.1030   -0.0720   -1.9350 H   0  0  0  0  0  0  0  0  0  0  0  0
   -3.5480   -0.8430    0.7140 H   0  0  0  0  0  0  0  0  0  0  0  0
   -3.8930   -2.0350   -1.4330 H   0  0  0  0  0  0  0  0  0  0  0  0
   -3.9060   -0.2710   -1.6720 H   0  0  0  0  0  0  0  0  0  0  0  0
   -2.4660   -1.2190   -2.1150 H   0  0  0  0  0  0  0  0  0  0  0  0
   -2.3900   -2.9000    0.3500 H   0  0  0  0  0  0  0  0  0  0  0  0
    3.2610   -2.8160    0.7590 H   0  0  0  0  0  0  0  0  0  0  0  0
 13 16  2  0  0  0  0
  6  7  2  0  0  0  0
 13 15  1  0  0  0  0
 10 13  1  0  0  0  0
  6 10  1  0  0  0  0
  1  6  1  0  0  0  0
  3 10  2  0  0  0  0
  1  2  1  0  0  0  0
  4  5  2  0  0  0  0
  1  9  1  0  0  0  0
  3  9  1  0  0  0  0
  8  9  1  0  0  0  0
  4  8  1  0  0  0  0
  8 11  1  0  0  0  0
 11 14  1  0  0  0  0
 11 12  1  0  0  0  0
  1 17  1  0  0  0  0
  2 18  1  0  0  0  0
  2 19  1  0  0  0  0
  2 20  1  0  0  0  0
  4 21  1  0  0  0  0
  7 22  1  0  0  0  0
  7 23  1  0  0  0  0
  8 24  1  0  0  0  0
  9 25  1  0  0  0  0
 11 26  1  0  0  0  0
 12 27  1  0  0  0  0
 12 28  1  0  0  0  0
 12 29  1  0  0  0  0
 14 30  1  0  0  0  0
 15 31  1  0  0  0  0
M  END
> <OPENEYE_ISO_SMILES>
C[C@@H]1[C@@H](N=C(C1=C)C(=O)O)[C@H](C=O)[C@@H](C)O

> <OPENEYE_INCHI>
InChI=1S/C11H15NO4/c1-5-6(2)10(11(15)16)12-9(5)8(4-13)7(3)14/h4-5,7-9,14H,2H2,1,3H3,(H,15,16)/t5-,7+,8+,9+/m0/s1

> <OPENEYE_INCHIKEY>
GGYAWCWTCNLFOB-KDBVAPGDSA-N

> <FORMULA>
C11H15NO4

$$$$
