REMARK  6 active torsions:
REMARK  status: ('A' for Active; 'I' for Inactive)
REMARK    1  A    between atoms: C_4  and  C_8 
REMARK    2  A    between atoms: C_8  and  C_9 
REMARK    3  A    between atoms: C_8  and  C_11 
REMARK    4  A    between atoms: CA_10  and  C_13 
REMARK    5  A    between atoms: C_11  and  O_14 
REMARK    6  A    between atoms: C_13  and  OXT_15 
ROOT
HETATM    1  C   UNL     1       0.046   1.543  -1.047  1.00  0.00     0.042 A 
HETATM    2  C   UNL     1      -0.566   2.585  -0.109  1.00  0.00     0.017 C 
HETATM    3  N   UNL     1       0.244  -0.781  -0.481  1.00  0.00    -0.276 NA
HETATM    4  C   UNL     1       1.446   1.171  -0.599  1.00  0.00    -0.026 A 
HETATM    5  C   UNL     1       2.495   1.983  -0.504  1.00  0.00     0.022 C 
HETATM    6  C   UNL     1      -0.723   0.212  -0.953  1.00  0.00     0.130 A 
HETATM    7  CA  UNL     1       1.411  -0.268  -0.290  1.00  0.00     0.131 A 
ENDROOT
BRANCH   6   8
HETATM    8  C   UNL     1      -1.877   0.339   0.043  1.00  0.00     0.101 C 
BRANCH   8   9
HETATM    9  C   UNL     1      -1.323   0.531   1.431  1.00  0.00     0.240 C 
HETATM   10  O   UNL     1      -1.690   1.464   2.104  1.00  0.00    -0.306 OA
ENDBRANCH   8   9
BRANCH   8  11
HETATM   11  C   UNL     1      -2.726  -0.933   0.004  1.00  0.00     0.126 C 
HETATM   12  C   UNL     1      -3.288  -1.129  -1.405  1.00  0.00     0.040 C 
BRANCH  11  13
HETATM   13  O   UNL     1      -1.916  -2.058   0.354  1.00  0.00    -0.395 OA
HETATM   14  H   UNL     1      -2.390  -2.900   0.350  1.00  0.00     0.210 HD
ENDBRANCH  11  13
ENDBRANCH   8  11
ENDBRANCH   6   8
BRANCH   7  15
HETATM   15  C   UNL     1       2.588  -1.041   0.190  1.00  0.00     0.195 C 
HETATM   16  O   UNL     1       3.656  -0.486   0.347  1.00  0.00    -0.645 OA
BRANCH  15  17
HETATM   17  OXT UNL     1       2.469  -2.356   0.449  1.00  0.00    -0.772 OA
HETATM   18  HXT UNL     1       3.261  -2.816   0.759  1.00  0.00     0.167 HD
ENDBRANCH  15  17
ENDBRANCH   7  15
TORSDOF 6
