8CY
  -OEChem-07282321083D

 47 57  0     1  0  0  0  0  0999 V2000
    4.9060   -1.8280  -13.4620 C   0  0  0  0  0  0  0  0  0  0  0  0
   11.4950    7.0780  -10.3170 C   0  4  0  0  0  0  0  0  0  0  0  0
   11.4990    6.7200  -11.6460 C   0  4  0  0  0  0  0  0  0  0  0  0
   12.8120    6.7310  -12.0650 C   0  4  0  0  0  0  0  0  0  0  0  0
   13.6220    7.0580  -10.9740 C   0  4  0  0  0  0  0  0  0  0  0  0
   12.7740    7.2650   -9.9080 C   0  4  0  0  0  0  0  0  0  0  0  0
   13.5380    3.2170  -10.4480 C   0  4  0  0  0  0  0  0  0  0  0  0
   12.2450    3.0940  -10.9170 C   0  4  0  0  0  0  0  0  0  0  0  0
   11.3460    3.5210   -9.9320 C   0  0  0  0  0  0  0  0  0  0  0  0
   13.5040    3.7420   -9.1960 C   0  4  0  0  0  0  0  0  0  0  0  0
    5.1040    2.2340  -13.9230 C   0  0  1  0  0  0  0  0  0  0  0  0
    4.7040    0.8200  -14.0180 C   0  0  1  0  0  0  0  0  0  0  0  0
    3.5350    3.6340  -13.5460 O   0  0  0  0  0  0  0  0  0  0  0  0
    4.0970    3.1380  -14.4670 C   0  0  0  0  0  0  0  0  0  0  0  0
    5.9330   -0.4050  -13.5160 S   0  0  0  0  0  0  0  0  0  0  0  0
    3.5060   -1.5280  -12.9250 C   0  0  0  0  0  0  0  0  0  0  0  0
    2.6790   -2.7740  -12.7030 C   0  0  0  0  0  0  0  0  0  0  0  0
    2.9970   -0.2950  -12.7390 C   0  0  0  0  0  0  0  0  0  0  0  0
    1.6360   -0.0760  -12.2680 C   0  0  0  0  0  0  0  0  0  0  0  0
    1.3250   -0.3550  -11.1660 O   0  0  0  0  0  0  0  0  0  0  0  0
    0.8530    0.3560  -13.0770 O   0  0  0  0  0  0  0  0  0  0  0  0
    3.6370    0.7760  -13.0720 N   0  0  0  0  0  0  0  0  0  0  0  0
    6.0880    2.6770  -12.9690 N   0  0  0  0  0  0  0  0  0  0  0  0
    7.3880    2.6090  -12.8590 C   0  0  0  0  0  0  0  0  0  0  0  0
    8.0880    2.1700  -13.6350 O   0  0  0  0  0  0  0  0  0  0  0  0
    7.8350    3.1910  -11.5380 C   0  0  0  0  0  0  0  0  0  0  0  0
    9.3640    3.3480  -11.4910 C   0  0  0  0  0  0  0  0  0  0  0  0
    9.8370    3.6150  -10.1030 C   0  0  0  0  0  0  0  0  0  0  0  0
    9.1590    3.9230   -9.2440 O   0  0  0  0  0  0  0  0  0  0  0  0
   12.5580    5.1920  -10.5300 Ru  0  0  0  0  0  0  0  0  0  0  0  0
   12.1540    3.9220   -8.8420 C   0  4  0  0  0  0  0  0  0  0  0  0
    4.8120   -2.2330  -14.4810 H   0  0  0  0  0  0  0  0  0  0  0  0
    5.3790   -2.5780  -12.8110 H   0  0  0  0  0  0  0  0  0  0  0  0
    5.7660    2.2370  -14.8020 H   0  0  0  0  0  0  0  0  0  0  0  0
    4.3730    0.5590  -15.0340 H   0  0  0  0  0  0  0  0  0  0  0  0
    1.6880   -2.4930  -12.3180 H   0  0  0  0  0  0  0  0  0  0  0  0
    2.5630   -3.3120  -13.6560 H   0  0  0  0  0  0  0  0  0  0  0  0
    3.1840   -3.4240  -11.9740 H   0  0  0  0  0  0  0  0  0  0  0  0
   -0.0080    0.4240  -12.6810 H   0  0  0  0  0  0  0  0  0  0  0  0
    4.0180    1.1370  -12.2210 H   0  0  0  0  0  0  0  0  0  0  0  0
    5.6720    3.1570  -12.1970 H   0  0  0  0  0  0  0  0  0  0  0  0
    7.3680    4.1780  -11.4040 H   0  0  0  0  0  0  0  0  0  0  0  0
    7.5170    2.5220  -10.7250 H   0  0  0  0  0  0  0  0  0  0  0  0
    9.8310    2.4220  -11.8570 H   0  0  0  0  0  0  0  0  0  0  0  0
    9.6580    4.1880  -12.1380 H   0  0  0  0  0  0  0  0  0  0  0  0
    3.5900    3.0820  -15.7640 O   0  0  0  0  0  0  0  0  0  0  0  0
    2.7370    3.4980  -15.7890 H   0  0  0  0  0  0  0  0  0  0  0  0
  1 15  1  0  0  0  0
  1 16  1  0  0  0  0
  2  3  1  0  0  0  0
  2  6  1  0  0  0  0
  2 30  1  0  0  0  0
  3  4  1  0  0  0  0
  3 30  1  0  0  0  0
  4  5  1  0  0  0  0
  4 30  1  0  0  0  0
  5  6  1  0  0  0  0
  5 30  1  0  0  0  0
  6 30  1  0  0  0  0
  7  8  1  0  0  0  0
  7 10  1  0  0  0  0
  7 30  1  0  0  0  0
  8  9  1  0  0  0  0
  8 30  1  0  0  0  0
  9 28  1  0  0  0  0
  9 30  1  0  0  0  0
  9 31  1  0  0  0  0
 10 30  1  0  0  0  0
 10 31  1  0  0  0  0
 11 12  1  0  0  0  0
 11 14  1  0  0  0  0
 11 23  1  0  0  0  0
 12 15  1  0  0  0  0
 12 22  1  0  0  0  0
 13 14  2  0  0  0  0
 16 17  1  0  0  0  0
 16 18  2  0  0  0  0
 18 19  1  0  0  0  0
 18 22  1  0  0  0  0
 19 20  2  0  0  0  0
 19 21  1  0  0  0  0
 23 24  1  0  0  0  0
 24 25  2  0  0  0  0
 24 26  1  0  0  0  0
 26 27  1  0  0  0  0
 27 28  1  0  0  0  0
 28 29  2  0  0  0  0
 30 31  1  0  0  0  0
  1 32  1  0  0  0  0
  1 33  1  0  0  0  0
 11 34  1  0  0  0  0
 12 35  1  0  0  0  0
 17 36  1  0  0  0  0
 17 37  1  0  0  0  0
 17 38  1  0  0  0  0
 21 39  1  0  0  0  0
 22 40  1  0  0  0  0
 23 41  1  0  0  0  0
 26 42  1  0  0  0  0
 26 43  1  0  0  0  0
 27 44  1  0  0  0  0
 27 45  1  0  0  0  0
 14 46  1  0  0  0  0
 46 47  1  0  0  0  0
M  RAD  8   2   2   3   2   4   2   5   2   6   2   7   2   8   2  10   2
M  RAD  1  31   2
M  END
> <OPENEYE_ISO_SMILES>
CC1=C(N[C@H](SC1)[C@@H](C(=O)O)NC(=O)CCC(=O)C23[C]4[Ru]2567891([C]4[C]5[C]63)[C]2[C]7[C]8[C]9[C]12)C(=O)O

> <OPENEYE_INCHI>
InChI=1S/C17H15N2O6S.C5.Ru/c1-9-8-26-15(19-13(9)16(22)23)14(17(24)25)18-12(21)7-6-11(20)10-4-2-3-5-10;1-2-4-5-3-1;/h14-15,19H,6-8H2,1H3,(H,18,21)(H,22,23)(H,24,25);;/t14-,15+;;/m0../s1

> <OPENEYE_INCHIKEY>
CDPPGRLWZRAGPB-FZMMWMHASA-N

> <FORMULA>
C22H15N2O6RuS

$$$$
