REMARK  6 active torsions:
REMARK  status: ('A' for Active; 'I' for Inactive)
REMARK    1  A    between atoms: C_1  and  C_16 
REMARK    2  A    between atoms: C_2  and  N_12 
REMARK    3  A    between atoms: O_4  and  S_7 
REMARK    4  A    between atoms: S_7  and  O_9 
REMARK    5  A    between atoms: O_9  and  N_10 
REMARK    6  A    between atoms: N_10  and  C_11 
REMARK       I    between atoms: C_16  and  N_18 
ROOT
HETATM    1  C   UNL     1      -2.799  -0.462  -0.670  1.00  0.00     0.202 C 
HETATM    2  C   UNL     1      -0.889   1.170  -0.730  1.00  0.00     0.152 C 
HETATM    3  C   UNL     1       0.388  -2.296   0.406  1.00  0.00     0.045 C 
HETATM    4  C   UNL     1      -0.001   0.227   0.087  1.00  0.00     0.131 C 
HETATM    5  N   UNL     1      -2.292   0.887  -0.380  1.00  0.00    -0.341 N 
HETATM    6  C   UNL     1      -0.546  -1.169   0.048  1.00  0.00    -0.064 C 
HETATM    7  C   UNL     1      -1.763  -1.475  -0.272  1.00  0.00     0.012 C 
ENDROOT
BRANCH   4   8
HETATM    8  N   UNL     1       1.358   0.234  -0.472  1.00  0.00    -0.176 NA
HETATM    9  H   UNL     1       1.443  -0.433  -1.224  1.00  0.00     0.156 HD
BRANCH   8  10
HETATM   10  O   UNL     1       2.353  -0.020   0.570  1.00  0.00    -0.167 OA
BRANCH  10  11
HETATM   11  S   UNL     1       3.789  -0.028   0.064  1.00  0.00     0.257 S 
HETATM   12  O   UNL     1       3.764  -0.664  -1.206  1.00  0.00    -0.578 OA
HETATM   13  O   UNL     1       4.592  -0.482   1.145  1.00  0.00    -0.578 OA
BRANCH  11  14
HETATM   14  O   UNL     1       4.186   1.419  -0.187  1.00  0.00    -0.273 OA
HETATM   15  H   UNL     1       5.090   1.528  -0.514  1.00  0.00     0.234 HD
ENDBRANCH  11  14
ENDBRANCH  10  11
ENDBRANCH   8  10
ENDBRANCH   4   8
BRANCH   5  16
HETATM   16  C   UNL     1      -3.077   1.826   0.184  1.00  0.00     0.351 C 
HETATM   17  O   UNL     1      -2.660   2.955   0.333  1.00  0.00    -0.284 OA
ENDBRANCH   5  16
BRANCH   1  18
HETATM   18  C   UNL     1      -4.065  -0.702   0.113  1.00  0.00     0.242 C 
HETATM   19  N   UNL     1      -5.092  -1.366  -0.454  1.00  0.00    -0.368 N 
HETATM   20  H   UNL     1      -5.906  -1.521   0.049  1.00  0.00     0.159 HD
HETATM   21  H   UNL     1      -5.016  -1.689  -1.366  1.00  0.00     0.159 HD
HETATM   22  O   UNL     1      -4.159  -0.299   1.252  1.00  0.00    -0.271 OA
ENDBRANCH   1  18
TORSDOF 6
