9CP
  -OEChem-07282321083D

 31 31  0     1  0  0  0  0  0999 V2000
   -2.7990   -0.4620   -0.6700 C   0  0  1  0  0  0  0  0  0  0  0  0
   -3.0770    1.8260    0.1840 C   0  0  0  0  0  0  0  0  0  0  0  0
   -0.8890    1.1700   -0.7300 C   0  0  0  0  0  0  0  0  0  0  0  0
    4.1860    1.4190   -0.1870 O   0  0  0  0  0  0  0  0  0  0  0  0
    3.7640   -0.6640   -1.2060 O   0  0  0  0  0  0  0  0  0  0  0  0
    0.3880   -2.2960    0.4060 C   0  0  0  0  0  0  0  0  0  0  0  0
    3.7890   -0.0280    0.0640 S   0  0  0  0  0  0  0  0  0  0  0  0
    4.5920   -0.4820    1.1450 O   0  0  0  0  0  0  0  0  0  0  0  0
    2.3530   -0.0200    0.5700 O   0  0  0  0  0  0  0  0  0  0  0  0
    1.3580    0.2340   -0.4720 N   0  0  0  0  0  0  0  0  0  0  0  0
   -0.0010    0.2270    0.0870 C   0  0  2  0  0  0  0  0  0  0  0  0
   -2.2920    0.8870   -0.3800 N   0  0  0  0  0  0  0  0  0  0  0  0
   -2.6600    2.9550    0.3330 O   0  0  0  0  0  0  0  0  0  0  0  0
   -0.5460   -1.1690    0.0480 C   0  0  0  0  0  0  0  0  0  0  0  0
   -1.7630   -1.4750   -0.2720 C   0  0  0  0  0  0  0  0  0  0  0  0
   -4.0650   -0.7020    0.1130 C   0  0  0  0  0  0  0  0  0  0  0  0
   -4.1590   -0.2990    1.2520 O   0  0  0  0  0  0  0  0  0  0  0  0
   -5.0920   -1.3660   -0.4540 N   0  0  0  0  0  0  0  0  0  0  0  0
   -3.0070   -0.5520   -1.7360 H   0  0  0  0  0  0  0  0  0  0  0  0
   -4.0780    1.5740    0.5020 H   0  0  0  0  0  0  0  0  0  0  0  0
   -0.6490    2.2050   -0.4880 H   0  0  0  0  0  0  0  0  0  0  0  0
   -0.7310    0.9940   -1.7950 H   0  0  0  0  0  0  0  0  0  0  0  0
    0.3340   -2.4860    1.4780 H   0  0  0  0  0  0  0  0  0  0  0  0
    0.0980   -3.1950   -0.1370 H   0  0  0  0  0  0  0  0  0  0  0  0
    1.4080   -2.0220    0.1370 H   0  0  0  0  0  0  0  0  0  0  0  0
    1.4430   -0.4330   -1.2240 H   0  0  0  0  0  0  0  0  0  0  0  0
    0.0320    0.5700    1.1210 H   0  0  0  0  0  0  0  0  0  0  0  0
   -2.0490   -2.5160   -0.2510 H   0  0  0  0  0  0  0  0  0  0  0  0
   -5.9060   -1.5210    0.0490 H   0  0  0  0  0  0  0  0  0  0  0  0
   -5.0160   -1.6890   -1.3660 H   0  0  0  0  0  0  0  0  0  0  0  0
    5.0900    1.5280   -0.5140 H   0  0  0  0  0  0  0  0  0  0  0  0
 16 18  1  0  0  0  0
 16 17  2  0  0  0  0
  1 16  1  0  0  0  0
  1 15  1  0  0  0  0
  1 12  1  0  0  0  0
  2 13  2  0  0  0  0
 14 15  2  0  0  0  0
  2 12  1  0  0  0  0
  3 12  1  0  0  0  0
  6 14  1  0  0  0  0
 11 14  1  0  0  0  0
  3 11  1  0  0  0  0
 10 11  1  0  0  0  0
  7  8  2  0  0  0  0
  9 10  1  0  0  0  0
  7  9  1  0  0  0  0
  5  7  2  0  0  0  0
  4  7  1  0  0  0  0
  1 19  1  0  0  0  0
  2 20  1  0  0  0  0
  3 21  1  0  0  0  0
  3 22  1  0  0  0  0
  6 23  1  0  0  0  0
  6 24  1  0  0  0  0
  6 25  1  0  0  0  0
 10 26  1  0  0  0  0
 11 27  1  0  0  0  0
 15 28  1  0  0  0  0
 18 29  1  0  0  0  0
 18 30  1  0  0  0  0
  4 31  1  0  0  0  0
M  END
> <OPENEYE_ISO_SMILES>
CC1=C[C@H](N(C[C@@H]1NOS(=O)(=O)O)C=O)C(=O)N

> <OPENEYE_INCHI>
InChI=1S/C8H13N3O6S/c1-5-2-7(8(9)13)11(4-12)3-6(5)10-17-18(14,15)16/h2,4,6-7,10H,3H2,1H3,(H2,9,13)(H,14,15,16)/t6-,7-/m0/s1

> <OPENEYE_INCHIKEY>
XVMABMMPQCPJKI-BQBZGAKWSA-N

> <FORMULA>
C8H13N3O6S

$$$$
