9EP
  -OEChem-07282321083D

 44 45  0     1  0  0  0  0  0999 V2000
    6.6030   -1.5690    0.2230 C   0  0  0  0  0  0  0  0  0  0  0  0
    5.2800   -1.3440    0.2410 O   0  0  0  0  0  0  0  0  0  0  0  0
    4.8180   -0.0820   -0.3090 C   0  0  0  0  0  0  0  0  0  0  0  0
    3.3120   -0.0530   -0.3060 C   0  0  0  0  0  0  0  0  0  0  0  0
    0.9130   -0.6690   -1.4210 S   0  0  0  0  0  0  0  0  0  0  0  0
    2.7330    0.9600    0.2960 C   0  0  0  0  0  0  0  0  0  0  0  0
    3.6290    1.9500    0.9200 C   0  0  0  0  0  0  0  0  0  0  0  0
    3.9750    2.9340    0.2970 O   0  0  0  0  0  0  0  0  0  0  0  0
    4.0660    1.7640    2.1820 O   0  0  0  0  0  0  0  0  0  0  0  0
    1.3700    1.2020    0.4100 N   0  0  0  0  0  0  0  0  0  0  0  0
    0.3880    0.1470    0.1210 C   0  0  1  0  0  0  0  0  0  0  0  0
   -1.0020    0.7610   -0.0610 C   0  0  2  0  0  0  0  0  0  0  0  0
   -1.9610   -0.2940   -0.4000 N   0  0  0  0  0  0  0  0  0  0  0  0
   -3.2690   -0.1300   -0.1230 C   0  0  0  0  0  0  0  0  0  0  0  0
   -0.9610    1.7780   -1.1720 C   0  0  0  0  0  0  0  0  0  0  0  0
   -1.6600    1.6360   -2.1470 O   0  0  0  0  0  0  0  0  0  0  0  0
    7.1560   -2.8570    0.7760 C   0  0  0  0  0  0  0  0  0  0  0  0
    2.6030   -1.1830   -0.9960 C   0  0  0  0  0  0  0  0  0  0  0  0
    7.3500   -0.7420   -0.2430 O   0  0  0  0  0  0  0  0  0  0  0  0
   -4.2550   -1.2150   -0.4720 C   0  0  0  0  0  0  0  0  0  0  0  0
   -3.6540    0.8920    0.4060 O   0  0  0  0  0  0  0  0  0  0  0  0
   -5.6410   -0.7850   -0.0620 C   0  0  0  0  0  0  0  0  0  0  0  0
   -6.4970   -0.1150   -0.8330 C   0  0  0  0  0  0  0  0  0  0  0  0
   -6.3770   -1.0990    1.5040 S   0  0  0  0  0  0  0  0  0  0  0  0
   -7.8480   -0.2700    1.0120 C   0  0  0  0  0  0  0  0  0  0  0  0
   -7.7150    0.1710   -0.2400 C   0  0  0  0  0  0  0  0  0  0  0  0
    5.1990    0.7400    0.2970 H   0  0  0  0  0  0  0  0  0  0  0  0
    5.1810    0.0230   -1.3320 H   0  0  0  0  0  0  0  0  0  0  0  0
    1.0620    2.0800    0.6850 H   0  0  0  0  0  0  0  0  0  0  0  0
    0.3720   -0.5760    0.9370 H   0  0  0  0  0  0  0  0  0  0  0  0
   -1.3090    1.2470    0.8650 H   0  0  0  0  0  0  0  0  0  0  0  0
   -1.6530   -1.1110   -0.8230 H   0  0  0  0  0  0  0  0  0  0  0  0
   -0.3060    2.6330   -1.0970 H   0  0  0  0  0  0  0  0  0  0  0  0
    6.3370   -3.4750    1.1450 H   0  0  0  0  0  0  0  0  0  0  0  0
    7.6900   -3.3910   -0.0090 H   0  0  0  0  0  0  0  0  0  0  0  0
    7.8410   -2.6360    1.5950 H   0  0  0  0  0  0  0  0  0  0  0  0
    3.1430   -1.4500   -1.9040 H   0  0  0  0  0  0  0  0  0  0  0  0
    2.5610   -2.0460   -0.3310 H   0  0  0  0  0  0  0  0  0  0  0  0
   -4.2340   -1.3930   -1.5470 H   0  0  0  0  0  0  0  0  0  0  0  0
   -3.9880   -2.1310    0.0540 H   0  0  0  0  0  0  0  0  0  0  0  0
   -6.2590    0.1830   -1.8440 H   0  0  0  0  0  0  0  0  0  0  0  0
   -8.7260   -0.1410    1.6270 H   0  0  0  0  0  0  0  0  0  0  0  0
   -8.4990    0.7090   -0.7530 H   0  0  0  0  0  0  0  0  0  0  0  0
    4.6520    2.4400    2.5480 H   0  0  0  0  0  0  0  0  0  0  0  0
  1  2  1  0  0  0  0
  1 17  1  0  0  0  0
  1 19  2  0  0  0  0
  2  3  1  0  0  0  0
  3  4  1  0  0  0  0
  4  6  2  0  0  0  0
  4 18  1  0  0  0  0
  5 11  1  0  0  0  0
  5 18  1  0  0  0  0
  6  7  1  0  0  0  0
  6 10  1  0  0  0  0
  7  8  2  0  0  0  0
  7  9  1  0  0  0  0
 10 11  1  0  0  0  0
 11 12  1  0  0  0  0
 12 13  1  0  0  0  0
 12 15  1  0  0  0  0
 13 14  1  0  0  0  0
 14 20  1  0  0  0  0
 14 21  2  0  0  0  0
 15 16  2  0  0  0  0
 20 22  1  0  0  0  0
 22 23  2  0  0  0  0
 22 24  1  0  0  0  0
 23 26  1  0  0  0  0
 24 25  1  0  0  0  0
 25 26  2  0  0  0  0
  3 27  1  0  0  0  0
  3 28  1  0  0  0  0
 10 29  1  0  0  0  0
 11 30  1  0  0  0  0
 12 31  1  0  0  0  0
 13 32  1  0  0  0  0
 15 33  1  0  0  0  0
 17 34  1  0  0  0  0
 17 35  1  0  0  0  0
 17 36  1  0  0  0  0
 18 37  1  0  0  0  0
 18 38  1  0  0  0  0
 20 39  1  0  0  0  0
 20 40  1  0  0  0  0
 23 41  1  0  0  0  0
 25 42  1  0  0  0  0
 26 43  1  0  0  0  0
  9 44  1  0  0  0  0
M  END
> <OPENEYE_ISO_SMILES>
CC(=O)OCC1=C(N[C@H](SC1)[C@@H](C=O)NC(=O)Cc2cccs2)C(=O)O

> <OPENEYE_INCHI>
InChI=1S/C16H18N2O6S2/c1-9(20)24-7-10-8-26-15(18-14(10)16(22)23)12(6-19)17-13(21)5-11-3-2-4-25-11/h2-4,6,12,15,18H,5,7-8H2,1H3,(H,17,21)(H,22,23)/t12-,15-/m1/s1

> <OPENEYE_INCHIKEY>
MXSQWXIVWHYOCY-IUODEOHRSA-N

> <FORMULA>
C16H18N2O6S2

$$$$
