9TG
  -OEChem-07282321083D

 39 40  0     1  0  0  0  0  0999 V2000
   -3.0990   -1.7850   -1.3500 C   0  0  0  0  0  0  0  0  0  0  0  0
   -2.8730   -1.5530    0.0080 C   0  0  0  0  0  0  0  0  0  0  0  0
   -2.5460   -0.2680    0.4460 C   0  0  0  0  0  0  0  0  0  0  0  0
   -2.0960    2.1510    0.0050 C   0  0  0  0  0  0  0  0  0  0  0  0
   -2.4490    0.7640   -0.4650 C   0  0  0  0  0  0  0  0  0  0  0  0
   -2.9930   -0.7450   -2.2510 C   0  0  0  0  0  0  0  0  0  0  0  0
   -2.6730    0.5270   -1.8090 C   0  0  0  0  0  0  0  0  0  0  0  0
   -2.9790   -2.6620    0.9780 C   0  0  0  0  0  0  0  0  0  0  0  0
   -3.2950   -3.9010    0.5520 O   0  0  0  0  0  0  0  0  0  0  0  0
   -2.7820   -2.4580    2.1590 O   0  0  0  0  0  0  0  0  0  0  0  0
   -0.5910    2.3760   -0.1510 C   0  0  1  0  0  0  0  0  0  0  0  0
   -0.2430    3.8630    0.2130 B   0  0  0  0  0  0  0  0  0  0  0  0
   -1.1550    4.9040   -0.1060 O   0  0  0  0  0  0  0  0  0  0  0  0
    0.9830    4.1670    0.8610 O   0  0  0  0  0  0  0  0  0  0  0  0
    1.2070    0.7930    0.2950 C   0  0  0  0  0  0  0  0  0  0  0  0
    1.5740    0.9310   -0.8530 O   0  0  0  0  0  0  0  0  0  0  0  0
    1.9520   -0.1370    1.2180 C   0  0  0  0  0  0  0  0  0  0  0  0
    3.1020   -0.7670    0.4740 C   0  0  0  0  0  0  0  0  0  0  0  0
    4.3360   -0.2670    0.4010 C   0  0  0  0  0  0  0  0  0  0  0  0
    5.2290   -1.0230   -0.3400 C   0  0  0  0  0  0  0  0  0  0  0  0
    4.7190   -2.1370   -0.8680 C   0  0  0  0  0  0  0  0  0  0  0  0
    3.0230   -2.2780   -0.4220 S   0  0  0  0  0  0  0  0  0  0  0  0
    0.1330    1.4720    0.7460 N   0  0  0  0  0  0  0  0  0  0  0  0
   -3.3510   -2.7760   -1.6960 H   0  0  0  0  0  0  0  0  0  0  0  0
   -2.3700   -0.0820    1.4950 H   0  0  0  0  0  0  0  0  0  0  0  0
   -2.6370    2.8860   -0.5910 H   0  0  0  0  0  0  0  0  0  0  0  0
   -2.3730    2.2600    1.0540 H   0  0  0  0  0  0  0  0  0  0  0  0
   -3.1670   -0.9230   -3.3020 H   0  0  0  0  0  0  0  0  0  0  0  0
   -2.5950    1.3380   -2.5180 H   0  0  0  0  0  0  0  0  0  0  0  0
   -3.3530   -4.5940    1.2240 H   0  0  0  0  0  0  0  0  0  0  0  0
   -0.2990    2.1760   -1.1820 H   0  0  0  0  0  0  0  0  0  0  0  0
   -0.8540    5.7850    0.1570 H   0  0  0  0  0  0  0  0  0  0  0  0
    1.1080    5.1090    1.0440 H   0  0  0  0  0  0  0  0  0  0  0  0
    2.3350    0.4250    2.0690 H   0  0  0  0  0  0  0  0  0  0  0  0
    1.2770   -0.9170    1.5710 H   0  0  0  0  0  0  0  0  0  0  0  0
    4.6180    0.6580    0.8820 H   0  0  0  0  0  0  0  0  0  0  0  0
    6.2590   -0.7320   -0.4800 H   0  0  0  0  0  0  0  0  0  0  0  0
    5.2650   -2.8450   -1.4730 H   0  0  0  0  0  0  0  0  0  0  0  0
   -0.1600    1.3610    1.6640 H   0  0  0  0  0  0  0  0  0  0  0  0
 15 16  2  0  0  0  0
 15 17  1  0  0  0  0
 17 18  1  0  0  0  0
 15 23  1  0  0  0  0
 18 22  1  0  0  0  0
 21 22  1  0  0  0  0
 18 19  2  0  0  0  0
 11 23  1  0  0  0  0
 11 12  1  0  0  0  0
  4 11  1  0  0  0  0
 20 21  2  0  0  0  0
 19 20  1  0  0  0  0
 12 14  1  0  0  0  0
 12 13  1  0  0  0  0
  4  5  1  0  0  0  0
  5  7  2  0  0  0  0
  6  7  1  0  0  0  0
  3  5  1  0  0  0  0
  1  6  2  0  0  0  0
  2  3  2  0  0  0  0
  1  2  1  0  0  0  0
  2  8  1  0  0  0  0
  8 10  2  0  0  0  0
  8  9  1  0  0  0  0
  1 24  1  0  0  0  0
  3 25  1  0  0  0  0
  4 26  1  0  0  0  0
  4 27  1  0  0  0  0
  6 28  1  0  0  0  0
  7 29  1  0  0  0  0
  9 30  1  0  0  0  0
 11 31  1  0  0  0  0
 13 32  1  0  0  0  0
 14 33  1  0  0  0  0
 17 34  1  0  0  0  0
 17 35  1  0  0  0  0
 19 36  1  0  0  0  0
 20 37  1  0  0  0  0
 21 38  1  0  0  0  0
 23 39  1  0  0  0  0
M  END
> <OPENEYE_ISO_SMILES>
B([C@H](Cc1cccc(c1)C(=O)O)NC(=O)Cc2cccs2)(O)O

> <OPENEYE_INCHI>
InChI=1S/C15H16BNO5S/c18-14(9-12-5-2-6-23-12)17-13(16(21)22)8-10-3-1-4-11(7-10)15(19)20/h1-7,13,21-22H,8-9H2,(H,17,18)(H,19,20)/t13-/m0/s1

> <OPENEYE_INCHIKEY>
SHAOGLYXUUWVRD-ZDUSSCGKSA-N

> <FORMULA>
C15H16BNO5S

$$$$
