REMARK  11 active torsions:
REMARK  status: ('A' for Active; 'I' for Inactive)
REMARK    1  A    between atoms: C_1  and  N_7 
REMARK    2  A    between atoms: C_1  and  B_4 
REMARK    3  A    between atoms: C_1  and  C_2 
REMARK    4  A    between atoms: C_2  and  N_8 
REMARK    5  A    between atoms: B_4  and  O_5 
REMARK    6  A    between atoms: B_4  and  O_6 
REMARK       I    between atoms: N_7  and  C_21 
REMARK    7  A    between atoms: C_9  and  C_12 
REMARK    8  A    between atoms: C_14  and  C_18 
REMARK    9  A    between atoms: C_18  and  O_20 
REMARK   10  A    between atoms: C_21  and  C_23 
REMARK   11  A    between atoms: C_23  and  C_24 
ROOT
HETATM    1  C   UNL     1      -1.566  -1.003   0.479  1.00  0.00     0.130 C 
ENDROOT
BRANCH   1   2
HETATM    2  N   UNL     1      -2.936  -1.017   0.997  1.00  0.00    -0.358 N 
HETATM    3  C   UNL     1      -3.909  -0.345   0.349  1.00  0.00     0.222 C 
HETATM    4  O   UNL     1      -3.650   0.271  -0.663  1.00  0.00    -0.273 OA
HETATM    5  H   UNL     1      -3.144  -1.510   1.806  1.00  0.00     0.162 HD
BRANCH   3   6
HETATM    6  C   UNL     1      -5.318  -0.360   0.882  1.00  0.00     0.148 C 
BRANCH   6   7
HETATM    7  C   UNL     1      -6.205   0.460  -0.020  1.00  0.00    -0.009 A 
HETATM    8  C   UNL     1      -6.877  -0.009  -1.072  1.00  0.00     0.015 A 
HETATM    9  C   UNL     1      -7.629   0.933  -1.752  1.00  0.00     0.008 A 
HETATM   10  C   UNL     1      -7.567   2.168  -1.252  1.00  0.00     0.050 A 
HETATM   11  S   UNL     1      -6.517   2.182   0.159  1.00  0.00    -0.106 SA
ENDBRANCH   6   7
ENDBRANCH   3   6
ENDBRANCH   1   2
BRANCH   1  12
HETATM   12  B   UNL     1      -1.247  -2.384  -0.196  1.00  0.00     0.516 B 
BRANCH  12  13
HETATM   13  O   UNL     1      -1.313  -3.579   0.567  1.00  0.00    -0.436 OA
HETATM   14  H   UNL     1      -1.100  -4.378   0.066  1.00  0.00     0.184 HD
ENDBRANCH  12  13
BRANCH  12  15
HETATM   15  O   UNL     1      -0.893  -2.437  -1.571  1.00  0.00    -0.436 OA
HETATM   16  H   UNL     1      -0.715  -3.330  -1.896  1.00  0.00     0.184 HD
ENDBRANCH  12  15
ENDBRANCH   1  12
BRANCH   1  17
HETATM   17  C   UNL     1      -0.588  -0.760   1.630  1.00  0.00     0.172 C 
BRANCH  17  18
HETATM   18  N   UNL     1       0.782  -0.745   1.112  1.00  0.00    -0.259 N 
HETATM   19  C   UNL     1       1.679   0.253   1.278  1.00  0.00     0.148 A 
HETATM   20  C   UNL     1       2.815  -0.150   0.637  1.00  0.00     0.108 A 
HETATM   21  N   UNL     1       2.544  -1.363   0.122  1.00  0.00    -0.130 NA
HETATM   22  N   UNL     1       1.335  -1.680   0.423  1.00  0.00    -0.066 NA
BRANCH  20  23
HETATM   23  C   UNL     1       4.092   0.600   0.530  1.00  0.00    -0.003 A 
HETATM   24  C   UNL     1       5.128   0.102  -0.252  1.00  0.00     0.032 A 
HETATM   25  C   UNL     1       6.324   0.811  -0.349  1.00  0.00     0.038 A 
HETATM   26  C   UNL     1       6.474   2.017   0.341  1.00  0.00     0.018 A 
HETATM   27  C   UNL     1       5.441   2.504   1.115  1.00  0.00     0.002 A 
HETATM   28  C   UNL     1       4.252   1.806   1.209  1.00  0.00     0.014 A 
BRANCH  25  29
HETATM   29  C   UNL     1       7.431   0.290  -1.177  1.00  0.00     0.176 C 
HETATM   30  O   UNL     1       7.299  -0.759  -1.776  1.00  0.00    -0.646 OA
BRANCH  29  31
HETATM   31  O   UNL     1       8.585   0.977  -1.269  1.00  0.00    -0.773 OA
HETATM   32  H   UNL     1       9.280   0.596  -1.823  1.00  0.00     0.167 HD
ENDBRANCH  29  31
ENDBRANCH  25  29
ENDBRANCH  20  23
ENDBRANCH  17  18
ENDBRANCH   1  17
TORSDOF 11
