9TJ
  -OEChem-07282321083D

 45 47  0     1  0  0  0  0  0999 V2000
   -1.5660   -1.0030    0.4790 C   0  0  1  0  0  0  0  0  0  0  0  0
   -0.5880   -0.7600    1.6300 C   0  0  0  0  0  0  0  0  0  0  0  0
    1.6790    0.2530    1.2780 C   0  0  0  0  0  0  0  0  0  0  0  0
   -1.2470   -2.3840   -0.1960 B   0  0  0  0  0  0  0  0  0  0  0  0
   -1.3130   -3.5790    0.5670 O   0  0  0  0  0  0  0  0  0  0  0  0
   -0.8930   -2.4370   -1.5710 O   0  0  0  0  0  0  0  0  0  0  0  0
   -2.9360   -1.0170    0.9970 N   0  0  0  0  0  0  0  0  0  0  0  0
    0.7820   -0.7450    1.1120 N   0  0  0  0  0  0  0  0  0  0  0  0
    2.8150   -0.1500    0.6370 C   0  0  0  0  0  0  0  0  0  0  0  0
    2.5440   -1.3630    0.1220 N   0  0  0  0  0  0  0  0  0  0  0  0
    1.3350   -1.6800    0.4230 N   0  0  0  0  0  0  0  0  0  0  0  0
    4.0920    0.6000    0.5300 C   0  0  0  0  0  0  0  0  0  0  0  0
    5.1280    0.1020   -0.2520 C   0  0  0  0  0  0  0  0  0  0  0  0
    6.3240    0.8110   -0.3490 C   0  0  0  0  0  0  0  0  0  0  0  0
    6.4740    2.0170    0.3410 C   0  0  0  0  0  0  0  0  0  0  0  0
    5.4410    2.5040    1.1150 C   0  0  0  0  0  0  0  0  0  0  0  0
    4.2520    1.8060    1.2090 C   0  0  0  0  0  0  0  0  0  0  0  0
    7.4310    0.2900   -1.1770 C   0  0  0  0  0  0  0  0  0  0  0  0
    7.2990   -0.7590   -1.7760 O   0  0  0  0  0  0  0  0  0  0  0  0
    8.5850    0.9770   -1.2690 O   0  0  0  0  0  0  0  0  0  0  0  0
   -3.9090   -0.3450    0.3490 C   0  0  0  0  0  0  0  0  0  0  0  0
   -3.6500    0.2710   -0.6630 O   0  0  0  0  0  0  0  0  0  0  0  0
   -5.3180   -0.3600    0.8820 C   0  0  0  0  0  0  0  0  0  0  0  0
   -6.2050    0.4600   -0.0200 C   0  0  0  0  0  0  0  0  0  0  0  0
   -6.8770   -0.0090   -1.0720 C   0  0  0  0  0  0  0  0  0  0  0  0
   -7.6290    0.9330   -1.7520 C   0  0  0  0  0  0  0  0  0  0  0  0
   -7.5670    2.1680   -1.2520 C   0  0  0  0  0  0  0  0  0  0  0  0
   -6.5170    2.1820    0.1590 S   0  0  0  0  0  0  0  0  0  0  0  0
   -1.4650   -0.2060   -0.2580 H   0  0  0  0  0  0  0  0  0  0  0  0
   -0.8090    0.1990    2.0990 H   0  0  0  0  0  0  0  0  0  0  0  0
   -0.6890   -1.5560    2.3670 H   0  0  0  0  0  0  0  0  0  0  0  0
    1.5260    1.1820    1.8060 H   0  0  0  0  0  0  0  0  0  0  0  0
   -1.1000   -4.3780    0.0660 H   0  0  0  0  0  0  0  0  0  0  0  0
   -0.7150   -3.3300   -1.8960 H   0  0  0  0  0  0  0  0  0  0  0  0
   -3.1440   -1.5100    1.8060 H   0  0  0  0  0  0  0  0  0  0  0  0
    5.0070   -0.8310   -0.7830 H   0  0  0  0  0  0  0  0  0  0  0  0
    7.4000    2.5690    0.2680 H   0  0  0  0  0  0  0  0  0  0  0  0
    5.5600    3.4370    1.6470 H   0  0  0  0  0  0  0  0  0  0  0  0
    3.4450    2.1950    1.8140 H   0  0  0  0  0  0  0  0  0  0  0  0
    9.2800    0.5960   -1.8230 H   0  0  0  0  0  0  0  0  0  0  0  0
   -5.6840   -1.3870    0.9140 H   0  0  0  0  0  0  0  0  0  0  0  0
   -5.3310    0.0620    1.8860 H   0  0  0  0  0  0  0  0  0  0  0  0
   -6.8380   -1.0470   -1.3700 H   0  0  0  0  0  0  0  0  0  0  0  0
   -8.2200    0.6870   -2.6210 H   0  0  0  0  0  0  0  0  0  0  0  0
   -8.0850    3.0280   -1.6510 H   0  0  0  0  0  0  0  0  0  0  0  0
 25 26  1  0  0  0  0
 24 25  2  0  0  0  0
 26 27  2  0  0  0  0
 23 24  1  0  0  0  0
 24 28  1  0  0  0  0
 21 23  1  0  0  0  0
 27 28  1  0  0  0  0
 21 22  2  0  0  0  0
  7 21  1  0  0  0  0
  1  7  1  0  0  0  0
  1  4  1  0  0  0  0
  1  2  1  0  0  0  0
 18 19  2  0  0  0  0
  4  5  1  0  0  0  0
  4  6  1  0  0  0  0
  2  8  1  0  0  0  0
 18 20  1  0  0  0  0
 14 18  1  0  0  0  0
  3  8  1  0  0  0  0
  3  9  2  0  0  0  0
  8 11  1  0  0  0  0
 13 14  2  0  0  0  0
 12 13  1  0  0  0  0
 14 15  1  0  0  0  0
  9 12  1  0  0  0  0
  9 10  1  0  0  0  0
 10 11  2  0  0  0  0
 12 17  2  0  0  0  0
 15 16  2  0  0  0  0
 16 17  1  0  0  0  0
  1 29  1  0  0  0  0
  2 30  1  0  0  0  0
  2 31  1  0  0  0  0
  3 32  1  0  0  0  0
  5 33  1  0  0  0  0
  6 34  1  0  0  0  0
  7 35  1  0  0  0  0
 13 36  1  0  0  0  0
 15 37  1  0  0  0  0
 16 38  1  0  0  0  0
 17 39  1  0  0  0  0
 20 40  1  0  0  0  0
 23 41  1  0  0  0  0
 23 42  1  0  0  0  0
 25 43  1  0  0  0  0
 26 44  1  0  0  0  0
 27 45  1  0  0  0  0
M  END
> <OPENEYE_ISO_SMILES>
B([C@H](Cn1cc(nn1)c2cccc(c2)C(=O)O)NC(=O)Cc3cccs3)(O)O

> <OPENEYE_INCHI>
InChI=1S/C17H17BN4O5S/c23-16(8-13-5-2-6-28-13)19-15(18(26)27)10-22-9-14(20-21-22)11-3-1-4-12(7-11)17(24)25/h1-7,9,15,26-27H,8,10H2,(H,19,23)(H,24,25)/t15-/m0/s1

> <OPENEYE_INCHIKEY>
WHXOLIBPKXZPTN-HNNXBMFYSA-N

> <FORMULA>
C17H17BN4O5S

$$$$
