A0V
  -OEChem-07282321083D

 23 23  0     0  0  0  0  0  0999 V2000
   -0.0220   -1.2460   -1.1690 C   0  0  0  0  0  0  0  0  0  0  0  0
   -5.0200    0.0720   -0.4490 O   0  0  0  0  0  0  0  0  0  0  0  0
   -3.5250    0.2580    0.1170 P   0  0  0  0  0  0  0  0  0  0  0  0
   -3.1270    1.8180    0.0790 O   0  0  0  0  0  0  0  0  0  0  0  0
   -3.4610   -0.2340    1.5120 O   0  0  0  0  0  0  0  0  0  0  0  0
   -2.4970   -0.5810   -0.7950 O   0  0  0  0  0  0  0  0  0  0  0  0
   -1.1430   -0.4830   -0.3790 B   0  0  0  0  0  0  0  0  0  0  0  0
   -0.8030    0.3040    0.7530 O   0  0  0  0  0  0  0  0  0  0  0  0
    1.2780   -0.9860   -0.5460 N   0  0  0  0  0  0  0  0  0  0  0  0
    1.8800   -1.7350    0.4760 N   0  0  0  0  0  0  0  0  0  0  0  0
    3.0160   -1.1980    0.7580 N   0  0  0  0  0  0  0  0  0  0  0  0
    3.2100   -0.1220   -0.0240 C   0  0  0  0  0  0  0  0  0  0  0  0
    2.1290    0.0150   -0.8480 C   0  0  0  0  0  0  0  0  0  0  0  0
    4.3930    0.7580    0.0000 C   0  0  0  0  0  0  0  0  0  0  0  0
    4.4590    1.7060   -0.7560 O   0  0  0  0  0  0  0  0  0  0  0  0
    5.4000    0.5100    0.8610 O   0  0  0  0  0  0  0  0  0  0  0  0
   -0.2270   -2.3160   -1.1500 H   0  0  0  0  0  0  0  0  0  0  0  0
   -0.0050   -0.8980   -2.2020 H   0  0  0  0  0  0  0  0  0  0  0  0
   -5.6940    0.5500    0.0530 H   0  0  0  0  0  0  0  0  0  0  0  0
   -3.1480    2.2070   -0.8060 H   0  0  0  0  0  0  0  0  0  0  0  0
    0.1410    0.3100    0.9600 H   0  0  0  0  0  0  0  0  0  0  0  0
    1.9810    0.7830   -1.5930 H   0  0  0  0  0  0  0  0  0  0  0  0
    6.1540    1.1150    0.8390 H   0  0  0  0  0  0  0  0  0  0  0  0
  3  5  2  0  0  0  0
  2  3  1  0  0  0  0
 14 15  2  0  0  0  0
  3  4  1  0  0  0  0
  3  6  1  0  0  0  0
 14 16  1  0  0  0  0
 12 14  1  0  0  0  0
  6  7  1  0  0  0  0
 12 13  2  0  0  0  0
  9 13  1  0  0  0  0
 11 12  1  0  0  0  0
  1  9  1  0  0  0  0
  9 10  1  0  0  0  0
  7  8  1  0  0  0  0
  1  7  1  0  0  0  0
 10 11  2  0  0  0  0
  1 17  1  0  0  0  0
  1 18  1  0  0  0  0
  2 19  1  0  0  0  0
  4 20  1  0  0  0  0
  8 21  1  0  0  0  0
 13 22  1  0  0  0  0
 16 23  1  0  0  0  0
M  END
> <OPENEYE_ISO_SMILES>
B(Cn1cc(nn1)C(=O)O)(O)OP(=O)(O)O

> <OPENEYE_INCHI>
InChI=1S/C4H7BN3O7P/c9-4(10)3-1-8(7-6-3)2-5(11)15-16(12,13)14/h1,11H,2H2,(H,9,10)(H2,12,13,14)

> <OPENEYE_INCHIKEY>
AEBNZGMSDDIREX-UHFFFAOYSA-N

> <FORMULA>
C4H7BN3O7P

$$$$
