REMARK  11 active torsions:
REMARK  status: ('A' for Active; 'I' for Inactive)
REMARK    1  A    between atoms: C_1  and  N_6 
REMARK    2  A    between atoms: C_1  and  B_3 
REMARK    3  A    between atoms: S_2  and  N_6 
REMARK    4  A    between atoms: S_2  and  C_9 
REMARK    5  A    between atoms: B_3  and  O_5 
REMARK    6  A    between atoms: B_3  and  O_4 
REMARK    7  A    between atoms: O_5  and  P_24 
REMARK    8  A    between atoms: C_10  and  C_20 
REMARK    9  A    between atoms: C_12  and  C_15 
REMARK   10  A    between atoms: P_24  and  O_25 
REMARK   11  A    between atoms: P_24  and  O_27 
ROOT
HETATM    1  C   UNL     1       1.416  -1.086  -0.819  1.00  0.00     0.094 A 
HETATM    2  C   UNL     1       1.841  -0.817   0.470  1.00  0.00     0.072 A 
HETATM    3  C   UNL     1       2.893   0.051   0.686  1.00  0.00     0.033 A 
HETATM    4  C   UNL     1       3.527   0.657  -0.398  1.00  0.00     0.014 A 
HETATM    5  C   UNL     1       3.093   0.382  -1.695  1.00  0.00     0.017 A 
HETATM    6  C   UNL     1       2.045  -0.491  -1.899  1.00  0.00     0.027 A 
ENDROOT
BRANCH   1   7
HETATM    7  S   UNL     1       0.074  -2.194  -1.087  1.00  0.00     0.259 S 
HETATM    8  O   UNL     1      -0.115  -2.264  -2.493  1.00  0.00    -0.201 OA
HETATM    9  O   UNL     1       0.329  -3.336  -0.280  1.00  0.00    -0.201 OA
BRANCH   7  10
HETATM   10  N   UNL     1      -1.285  -1.478  -0.467  1.00  0.00    -0.319 N 
HETATM   11  H   UNL     1      -1.763  -1.897   0.266  1.00  0.00     0.171 HD
BRANCH  10  12
HETATM   12  C   UNL     1      -1.765  -0.212  -1.026  1.00  0.00     0.153 C 
BRANCH  12  13
HETATM   13  B   UNL     1      -3.127   0.176  -0.349  1.00  0.00     0.521 B 
BRANCH  13  14
HETATM   14  O   UNL     1      -3.793   1.371  -0.728  1.00  0.00    -0.334 OA
BRANCH  14  15
HETATM   15  P   UNL     1      -5.177   1.627   0.056  1.00  0.00     0.375 P 
HETATM   16  O   UNL     1      -6.107   0.506  -0.208  1.00  0.00    -0.632 OA
BRANCH  15  17
HETATM   17  O   UNL     1      -5.836   3.004  -0.455  1.00  0.00    -0.308 OA
HETATM   18  H   UNL     1      -6.674   3.221  -0.025  1.00  0.00     0.222 HD
ENDBRANCH  15  17
BRANCH  15  19
HETATM   19  O   UNL     1      -4.888   1.724   1.636  1.00  0.00    -0.308 OA
HETATM   20  H   UNL     1      -4.284   2.438   1.883  1.00  0.00     0.222 HD
ENDBRANCH  15  19
ENDBRANCH  14  15
ENDBRANCH  13  14
BRANCH  13  21
HETATM   21  O   UNL     1      -3.694  -0.669   0.641  1.00  0.00    -0.436 OA
HETATM   22  H   UNL     1      -4.533  -0.348   0.999  1.00  0.00     0.184 HD
ENDBRANCH  13  21
ENDBRANCH  12  13
ENDBRANCH  10  12
ENDBRANCH   7  10
ENDBRANCH   1   7
BRANCH   2  23
HETATM   23  C   UNL     1       1.155  -1.473   1.640  1.00  0.00     0.419 C 
HETATM   24  F   UNL     1       1.664  -0.949   2.833  1.00  0.00    -0.166 F 
HETATM   25  F   UNL     1       1.384  -2.853   1.602  1.00  0.00    -0.166 F 
HETATM   26  F   UNL     1      -0.221  -1.227   1.572  1.00  0.00    -0.166 F 
ENDBRANCH   2  23
BRANCH   4  27
HETATM   27  C   UNL     1       4.654   1.589  -0.173  1.00  0.00     0.179 A 
HETATM   28  N   UNL     1       5.356   2.250  -1.126  1.00  0.00    -0.239 N 
HETATM   29  N   UNL     1       6.313   3.004  -0.424  1.00  0.00    -0.046 NA
HETATM   30  H   UNL     1       5.226   2.212  -2.087  1.00  0.00     0.192 HD
HETATM   31  N   UNL     1       6.134   2.760   0.829  1.00  0.00    -0.023 NA
HETATM   32  N   UNL     1       5.162   1.937   0.991  1.00  0.00    -0.108 NA
ENDBRANCH   4  27
TORSDOF 11
