A0Y
  -OEChem-07282321083D

 37 38  0     0  0  0  0  0  0999 V2000
   -1.7650   -0.2120   -1.0260 C   0  0  0  0  0  0  0  0  0  0  0  0
    0.0740   -2.1940   -1.0870 S   0  0  0  0  0  0  0  0  0  0  0  0
   -3.1270    0.1760   -0.3490 B   0  0  0  0  0  0  0  0  0  0  0  0
   -3.6940   -0.6690    0.6410 O   0  0  0  0  0  0  0  0  0  0  0  0
   -3.7930    1.3710   -0.7280 O   0  0  0  0  0  0  0  0  0  0  0  0
   -1.2850   -1.4780   -0.4670 N   0  0  0  0  0  0  0  0  0  0  0  0
    0.3290   -3.3360   -0.2800 O   0  0  0  0  0  0  0  0  0  0  0  0
   -0.1150   -2.2640   -2.4930 O   0  0  0  0  0  0  0  0  0  0  0  0
    1.4160   -1.0860   -0.8190 C   0  0  0  0  0  0  0  0  0  0  0  0
    1.8410   -0.8170    0.4700 C   0  0  0  0  0  0  0  0  0  0  0  0
    2.8930    0.0510    0.6860 C   0  0  0  0  0  0  0  0  0  0  0  0
    3.5270    0.6570   -0.3980 C   0  0  0  0  0  0  0  0  0  0  0  0
    3.0930    0.3820   -1.6950 C   0  0  0  0  0  0  0  0  0  0  0  0
    2.0450   -0.4910   -1.8990 C   0  0  0  0  0  0  0  0  0  0  0  0
    4.6540    1.5890   -0.1730 C   0  0  0  0  0  0  0  0  0  0  0  0
    5.3560    2.2500   -1.1260 N   0  0  0  0  0  0  0  0  0  0  0  0
    6.3130    3.0040   -0.4240 N   0  0  0  0  0  0  0  0  0  0  0  0
    6.1340    2.7600    0.8290 N   0  0  0  0  0  0  0  0  0  0  0  0
    5.1620    1.9370    0.9910 N   0  0  0  0  0  0  0  0  0  0  0  0
    1.1550   -1.4730    1.6400 C   0  0  0  0  0  0  0  0  0  0  0  0
    1.6640   -0.9490    2.8330 F   0  0  0  0  0  0  0  0  0  0  0  0
   -0.2210   -1.2270    1.5720 F   0  0  0  0  0  0  0  0  0  0  0  0
    1.3840   -2.8530    1.6020 F   0  0  0  0  0  0  0  0  0  0  0  0
   -5.1770    1.6270    0.0560 P   0  0  0  0  0  0  0  0  0  0  0  0
   -5.8360    3.0040   -0.4550 O   0  0  0  0  0  0  0  0  0  0  0  0
   -6.1070    0.5060   -0.2080 O   0  0  0  0  0  0  0  0  0  0  0  0
   -4.8880    1.7240    1.6360 O   0  0  0  0  0  0  0  0  0  0  0  0
   -1.9100   -0.3200   -2.1000 H   0  0  0  0  0  0  0  0  0  0  0  0
   -1.0300    0.5710   -0.8360 H   0  0  0  0  0  0  0  0  0  0  0  0
   -4.5330   -0.3480    0.9990 H   0  0  0  0  0  0  0  0  0  0  0  0
   -1.7630   -1.8970    0.2660 H   0  0  0  0  0  0  0  0  0  0  0  0
    3.2230    0.2600    1.6930 H   0  0  0  0  0  0  0  0  0  0  0  0
    3.5800    0.8490   -2.5390 H   0  0  0  0  0  0  0  0  0  0  0  0
    1.7120   -0.7080   -2.9030 H   0  0  0  0  0  0  0  0  0  0  0  0
    5.2260    2.2120   -2.0870 H   0  0  0  0  0  0  0  0  0  0  0  0
   -6.6740    3.2210   -0.0250 H   0  0  0  0  0  0  0  0  0  0  0  0
   -4.2840    2.4380    1.8830 H   0  0  0  0  0  0  0  0  0  0  0  0
 24 26  2  0  0  0  0
 24 25  1  0  0  0  0
 24 27  1  0  0  0  0
  5 24  1  0  0  0  0
 20 21  1  0  0  0  0
 20 23  1  0  0  0  0
  3  5  1  0  0  0  0
 20 22  1  0  0  0  0
  2  8  2  0  0  0  0
 10 20  1  0  0  0  0
  2  6  1  0  0  0  0
  1  6  1  0  0  0  0
  3  4  1  0  0  0  0
  1  3  1  0  0  0  0
  2  9  1  0  0  0  0
  2  7  2  0  0  0  0
  9 10  2  0  0  0  0
 10 11  1  0  0  0  0
  9 14  1  0  0  0  0
 11 12  2  0  0  0  0
 13 14  2  0  0  0  0
 12 13  1  0  0  0  0
 12 15  1  0  0  0  0
 15 16  1  0  0  0  0
 16 17  1  0  0  0  0
 15 19  2  0  0  0  0
 17 18  2  0  0  0  0
 18 19  1  0  0  0  0
  1 28  1  0  0  0  0
  1 29  1  0  0  0  0
  4 30  1  0  0  0  0
  6 31  1  0  0  0  0
 11 32  1  0  0  0  0
 13 33  1  0  0  0  0
 14 34  1  0  0  0  0
 16 35  1  0  0  0  0
 25 36  1  0  0  0  0
 27 37  1  0  0  0  0
M  END
> <OPENEYE_ISO_SMILES>
B(CNS(=O)(=O)c1ccc(cc1C(F)(F)F)c2[nH]nnn2)(O)OP(=O)(O)O

> <OPENEYE_INCHI>
InChI=1S/C9H10BF3N5O7PS/c11-9(12,13)6-3-5(8-15-17-18-16-8)1-2-7(6)27(23,24)14-4-10(19)25-26(20,21)22/h1-3,14,19H,4H2,(H2,20,21,22)(H,15,16,17,18)

> <OPENEYE_INCHIKEY>
XBAWENGVMJDDFO-UHFFFAOYSA-N

> <FORMULA>
C9H10BF3N5O7PS

$$$$
