REMARK  12 active torsions:
REMARK  status: ('A' for Active; 'I' for Inactive)
REMARK    1  A    between atoms: C_4  and  C_10 
REMARK    2  A    between atoms: C_6  and  C_7 
REMARK    3  A    between atoms: C_7  and  O_9 
REMARK    4  A    between atoms: C_10  and  S_11 
REMARK    5  A    between atoms: S_11  and  N_14 
REMARK    6  A    between atoms: N_14  and  C_15 
REMARK    7  A    between atoms: C_15  and  B_16 
REMARK    8  A    between atoms: B_16  and  O_18 
REMARK    9  A    between atoms: B_16  and  O_17 
REMARK   10  A    between atoms: O_17  and  P_19 
REMARK   11  A    between atoms: P_19  and  O_20 
REMARK   12  A    between atoms: P_19  and  O_21 
ROOT
HETATM    1  S   UNL     1      -0.718   0.009  -1.057  1.00  0.00     0.230 S 
HETATM    2  O   UNL     1      -0.678  -1.200  -1.804  1.00  0.00    -0.206 OA
HETATM    3  O   UNL     1      -1.280   1.192  -1.609  1.00  0.00    -0.206 OA
ENDROOT
BRANCH   1   4
HETATM    4  C   UNL     1      -1.375  -0.292   0.607  1.00  0.00     0.201 C 
BRANCH   4   5
HETATM    5  C   UNL     1      -2.836  -0.652   0.512  1.00  0.00    -0.042 A 
HETATM    6  C   UNL     1      -3.213  -1.976   0.375  1.00  0.00     0.008 A 
HETATM    7  C   UNL     1      -4.552  -2.315   0.289  1.00  0.00     0.002 A 
HETATM    8  C   UNL     1      -5.520  -1.333   0.339  1.00  0.00     0.018 A 
HETATM    9  C   UNL     1      -5.146   0.005   0.477  1.00  0.00     0.038 A 
HETATM   10  C   UNL     1      -3.793   0.340   0.564  1.00  0.00     0.026 A 
BRANCH   9  11
HETATM   11  C   UNL     1      -6.177   1.062   0.532  1.00  0.00     0.176 C 
HETATM   12  O   UNL     1      -5.849   2.225   0.652  1.00  0.00    -0.646 OA
BRANCH  11  13
HETATM   13  O   UNL     1      -7.481   0.735   0.447  1.00  0.00    -0.773 OA
HETATM   14  H   UNL     1      -8.119   1.461   0.488  1.00  0.00     0.167 HD
ENDBRANCH  11  13
ENDBRANCH   9  11
ENDBRANCH   4   5
ENDBRANCH   1   4
BRANCH   1  15
HETATM   15  N   UNL     1       0.874   0.389  -0.810  1.00  0.00    -0.322 N 
HETATM   16  H   UNL     1       1.201   1.276  -1.028  1.00  0.00     0.171 HD
BRANCH  15  17
HETATM   17  C   UNL     1       1.791  -0.614  -0.263  1.00  0.00     0.152 C 
BRANCH  17  18
HETATM   18  B   UNL     1       3.227   0.005  -0.131  1.00  0.00     0.521 B 
BRANCH  18  19
HETATM   19  O   UNL     1       3.459   1.350  -0.523  1.00  0.00    -0.436 OA
HETATM   20  H   UNL     1       4.373   1.642  -0.405  1.00  0.00     0.184 HD
ENDBRANCH  18  19
BRANCH  18  21
HETATM   21  O   UNL     1       4.295  -0.780   0.379  1.00  0.00    -0.334 OA
BRANCH  21  22
HETATM   22  P   UNL     1       5.703  -0.003   0.451  1.00  0.00     0.375 P 
HETATM   23  O   UNL     1       6.094   0.437  -0.907  1.00  0.00    -0.632 OA
BRANCH  22  24
HETATM   24  O   UNL     1       5.558   1.283   1.410  1.00  0.00    -0.308 OA
HETATM   25  H   UNL     1       5.303   1.069   2.318  1.00  0.00     0.222 HD
ENDBRANCH  22  24
BRANCH  22  26
HETATM   26  O   UNL     1       6.831  -0.988   1.042  1.00  0.00    -0.308 OA
HETATM   27  H   UNL     1       7.707  -0.585   1.114  1.00  0.00     0.222 HD
ENDBRANCH  22  26
ENDBRANCH  21  22
ENDBRANCH  18  21
ENDBRANCH  17  18
ENDBRANCH  15  17
ENDBRANCH   1  15
TORSDOF 12
