A1J
  -OEChem-07282321083D

 35 35  0     0  0  0  0  0  0999 V2000
   -5.5200   -1.3330    0.3390 C   0  0  0  0  0  0  0  0  0  0  0  0
   -4.5520   -2.3150    0.2890 C   0  0  0  0  0  0  0  0  0  0  0  0
   -3.2130   -1.9760    0.3750 C   0  0  0  0  0  0  0  0  0  0  0  0
   -2.8360   -0.6520    0.5120 C   0  0  0  0  0  0  0  0  0  0  0  0
   -3.7930    0.3400    0.5640 C   0  0  0  0  0  0  0  0  0  0  0  0
   -5.1460    0.0050    0.4770 C   0  0  0  0  0  0  0  0  0  0  0  0
   -6.1770    1.0620    0.5320 C   0  0  0  0  0  0  0  0  0  0  0  0
   -5.8490    2.2250    0.6520 O   0  0  0  0  0  0  0  0  0  0  0  0
   -7.4810    0.7350    0.4470 O   0  0  0  0  0  0  0  0  0  0  0  0
   -1.3750   -0.2920    0.6070 C   0  0  0  0  0  0  0  0  0  0  0  0
   -0.7180    0.0090   -1.0570 S   0  0  0  0  0  0  0  0  0  0  0  0
   -0.6780   -1.2000   -1.8040 O   0  0  0  0  0  0  0  0  0  0  0  0
   -1.2800    1.1920   -1.6090 O   0  0  0  0  0  0  0  0  0  0  0  0
    0.8740    0.3890   -0.8100 N   0  0  0  0  0  0  0  0  0  0  0  0
    1.7910   -0.6140   -0.2630 C   0  0  0  0  0  0  0  0  0  0  0  0
    3.2270    0.0050   -0.1310 B   0  0  0  0  0  0  0  0  0  0  0  0
    4.2950   -0.7800    0.3790 O   0  0  0  0  0  0  0  0  0  0  0  0
    3.4590    1.3500   -0.5230 O   0  0  0  0  0  0  0  0  0  0  0  0
    5.7030   -0.0030    0.4510 P   0  0  0  0  0  0  0  0  0  0  0  0
    5.5580    1.2830    1.4100 O   0  0  0  0  0  0  0  0  0  0  0  0
    6.8310   -0.9880    1.0420 O   0  0  0  0  0  0  0  0  0  0  0  0
    6.0940    0.4370   -0.9070 O   0  0  0  0  0  0  0  0  0  0  0  0
   -6.5640   -1.5990    0.2670 H   0  0  0  0  0  0  0  0  0  0  0  0
   -4.8400   -3.3500    0.1820 H   0  0  0  0  0  0  0  0  0  0  0  0
   -2.4590   -2.7480    0.3350 H   0  0  0  0  0  0  0  0  0  0  0  0
   -3.4970    1.3730    0.6720 H   0  0  0  0  0  0  0  0  0  0  0  0
   -8.1190    1.4610    0.4880 H   0  0  0  0  0  0  0  0  0  0  0  0
   -1.2610    0.6080    1.2110 H   0  0  0  0  0  0  0  0  0  0  0  0
   -0.8280   -1.1130    1.0700 H   0  0  0  0  0  0  0  0  0  0  0  0
    1.2010    1.2760   -1.0280 H   0  0  0  0  0  0  0  0  0  0  0  0
    1.4400   -0.9300    0.7200 H   0  0  0  0  0  0  0  0  0  0  0  0
    1.8260   -1.4760   -0.9300 H   0  0  0  0  0  0  0  0  0  0  0  0
    4.3730    1.6420   -0.4050 H   0  0  0  0  0  0  0  0  0  0  0  0
    5.3030    1.0690    2.3180 H   0  0  0  0  0  0  0  0  0  0  0  0
    7.7070   -0.5850    1.1140 H   0  0  0  0  0  0  0  0  0  0  0  0
  7  8  2  0  0  0  0
  1  2  2  0  0  0  0
  1  6  1  0  0  0  0
  2  3  1  0  0  0  0
  6  7  1  0  0  0  0
  7  9  1  0  0  0  0
  5  6  2  0  0  0  0
  3  4  2  0  0  0  0
  4  5  1  0  0  0  0
  4 10  1  0  0  0  0
 10 11  1  0  0  0  0
 11 13  2  0  0  0  0
 11 12  2  0  0  0  0
 11 14  1  0  0  0  0
 14 15  1  0  0  0  0
 15 16  1  0  0  0  0
 16 18  1  0  0  0  0
 16 17  1  0  0  0  0
 17 19  1  0  0  0  0
 19 22  2  0  0  0  0
 19 20  1  0  0  0  0
 19 21  1  0  0  0  0
  1 23  1  0  0  0  0
  2 24  1  0  0  0  0
  3 25  1  0  0  0  0
  5 26  1  0  0  0  0
  9 27  1  0  0  0  0
 10 28  1  0  0  0  0
 10 29  1  0  0  0  0
 14 30  1  0  0  0  0
 15 31  1  0  0  0  0
 15 32  1  0  0  0  0
 18 33  1  0  0  0  0
 20 34  1  0  0  0  0
 21 35  1  0  0  0  0
M  END
> <OPENEYE_ISO_SMILES>
B(CNS(=O)(=O)Cc1cccc(c1)C(=O)O)(O)OP(=O)(O)O

> <OPENEYE_INCHI>
InChI=1S/C9H13BNO9PS/c12-9(13)8-3-1-2-7(4-8)5-22(18,19)11-6-10(14)20-21(15,16)17/h1-4,11,14H,5-6H2,(H,12,13)(H2,15,16,17)

> <OPENEYE_INCHIKEY>
SEUMVDPBYULKQH-UHFFFAOYSA-N

> <FORMULA>
C9H13BNO9PS

$$$$
