A1M
  -OEChem-07282321083D

 34 35  0     0  0  0  0  0  0999 V2000
   -5.2800   -1.9520   -0.9970 N   0  0  0  0  0  0  0  0  0  0  0  0
   -0.4130    3.5620    0.9510 O   0  0  0  0  0  0  0  0  0  0  0  0
   -0.2080    2.6500   -0.1190 S   0  0  0  0  0  0  0  0  0  0  0  0
   -0.0740    3.0580   -1.4730 O   0  0  0  0  0  0  0  0  0  0  0  0
    1.1620    1.7960    0.2500 N   0  0  0  0  0  0  0  0  0  0  0  0
    1.6310    0.7400   -0.6500 C   0  0  0  0  0  0  0  0  0  0  0  0
    2.9390    0.0970   -0.0660 B   0  0  0  0  0  0  0  0  0  0  0  0
    3.4740    0.5680    1.1620 O   0  0  0  0  0  0  0  0  0  0  0  0
    3.5860   -0.9560   -0.7650 O   0  0  0  0  0  0  0  0  0  0  0  0
   -1.5570    1.5170   -0.0720 C   0  0  0  0  0  0  0  0  0  0  0  0
   -2.2470    1.3160    1.1100 C   0  0  0  0  0  0  0  0  0  0  0  0
   -3.3050    0.4310    1.1520 C   0  0  0  0  0  0  0  0  0  0  0  0
   -3.6770   -0.2620    0.0010 C   0  0  0  0  0  0  0  0  0  0  0  0
   -2.9770   -0.0550   -1.1880 C   0  0  0  0  0  0  0  0  0  0  0  0
   -1.9260    0.8370   -1.2190 C   0  0  0  0  0  0  0  0  0  0  0  0
   -4.8100   -1.2140    0.0400 C   0  0  0  0  0  0  0  0  0  0  0  0
   -6.3560   -2.6870   -0.4690 N   0  0  0  0  0  0  0  0  0  0  0  0
   -6.4560   -2.3620    0.7750 N   0  0  0  0  0  0  0  0  0  0  0  0
   -5.5530   -1.5030    1.0870 N   0  0  0  0  0  0  0  0  0  0  0  0
    4.9120   -1.5080   -0.0380 P   0  0  0  0  0  0  0  0  0  0  0  0
    5.5550   -2.6920   -0.9190 O   0  0  0  0  0  0  0  0  0  0  0  0
    5.8930   -0.4070    0.1010 O   0  0  0  0  0  0  0  0  0  0  0  0
    4.5290   -2.0710    1.4210 O   0  0  0  0  0  0  0  0  0  0  0  0
   -4.9470   -1.9660   -1.9080 H   0  0  0  0  0  0  0  0  0  0  0  0
    1.6530    1.9940    1.0620 H   0  0  0  0  0  0  0  0  0  0  0  0
    0.8610   -0.0260   -0.7460 H   0  0  0  0  0  0  0  0  0  0  0  0
    1.8430    1.1660   -1.6310 H   0  0  0  0  0  0  0  0  0  0  0  0
    4.2800    0.1120    1.4400 H   0  0  0  0  0  0  0  0  0  0  0  0
   -1.9580    1.8530    2.0010 H   0  0  0  0  0  0  0  0  0  0  0  0
   -3.8430    0.2750    2.0760 H   0  0  0  0  0  0  0  0  0  0  0  0
   -3.2610   -0.5890   -2.0830 H   0  0  0  0  0  0  0  0  0  0  0  0
   -1.3830    0.9980   -2.1390 H   0  0  0  0  0  0  0  0  0  0  0  0
    6.3590   -3.0720   -0.5390 H   0  0  0  0  0  0  0  0  0  0  0  0
    3.8890   -2.7960    1.4070 H   0  0  0  0  0  0  0  0  0  0  0  0
  1 17  1  0  0  0  0
 17 18  2  0  0  0  0
  1 16  1  0  0  0  0
 18 19  1  0  0  0  0
 16 19  2  0  0  0  0
 13 16  1  0  0  0  0
 13 14  2  0  0  0  0
 14 15  1  0  0  0  0
 12 13  1  0  0  0  0
 10 15  2  0  0  0  0
 11 12  2  0  0  0  0
 10 11  1  0  0  0  0
  3 10  1  0  0  0  0
  3  4  2  0  0  0  0
  6  7  1  0  0  0  0
  5  6  1  0  0  0  0
  3  5  1  0  0  0  0
  2  3  2  0  0  0  0
  7  8  1  0  0  0  0
  7  9  1  0  0  0  0
  9 20  1  0  0  0  0
 20 22  2  0  0  0  0
 20 21  1  0  0  0  0
 20 23  1  0  0  0  0
  1 24  1  0  0  0  0
  5 25  1  0  0  0  0
  6 26  1  0  0  0  0
  6 27  1  0  0  0  0
  8 28  1  0  0  0  0
 11 29  1  0  0  0  0
 12 30  1  0  0  0  0
 14 31  1  0  0  0  0
 15 32  1  0  0  0  0
 21 33  1  0  0  0  0
 23 34  1  0  0  0  0
M  END
> <OPENEYE_ISO_SMILES>
B(CNS(=O)(=O)c1ccc(cc1)c2[nH]nnn2)(O)OP(=O)(O)O

> <OPENEYE_INCHI>
InChI=1S/C8H11BN5O7PS/c15-9(21-22(16,17)18)5-10-23(19,20)7-3-1-6(2-4-7)8-11-13-14-12-8/h1-4,10,15H,5H2,(H2,16,17,18)(H,11,12,13,14)

> <OPENEYE_INCHIKEY>
UHAQVSCTKPIBDM-UHFFFAOYSA-N

> <FORMULA>
C8H11BN5O7PS

$$$$
