AIX
  -OEChem-07282321083D

 45 46  0     1  0  0  0  0  0999 V2000
    3.8280    2.6470   -1.2630 C   0  0  0  0  0  0  0  0  0  0  0  0
    3.8440    0.4190   -0.3860 C   0  0  0  0  0  0  0  0  0  0  0  0
   -3.6140    0.0420   -0.9330 C   0  0  0  0  0  0  0  0  0  0  0  0
    1.0180   -0.9660   -0.0670 N   0  0  0  0  0  0  0  0  0  0  0  0
   -3.8300    1.5120    1.0510 C   0  0  0  0  0  0  0  0  0  0  0  0
   -2.4850   -0.4880    1.2400 N   0  0  0  0  0  0  0  0  0  0  0  0
    3.4520   -1.0320   -0.5010 C   0  0  2  0  0  0  0  0  0  0  0  0
   -3.7600    1.4500   -1.5130 C   0  0  0  0  0  0  0  0  0  0  0  0
    2.2500   -1.2980    0.3670 C   0  0  0  0  0  0  0  0  0  0  0  0
    3.4700    1.3160   -1.3690 C   0  0  0  0  0  0  0  0  0  0  0  0
    4.5660    3.0790   -0.1770 C   0  0  0  0  0  0  0  0  0  0  0  0
    4.9450    2.1810    0.8030 C   0  0  0  0  0  0  0  0  0  0  0  0
    4.5860    0.8500    0.6970 C   0  0  0  0  0  0  0  0  0  0  0  0
   -3.6780    0.0800    0.6060 C   0  0  2  0  0  0  0  0  0  0  0  0
   -1.2760   -0.2570    0.4020 C   0  0  1  0  0  0  0  0  0  0  0  0
   -0.1510   -1.2240    0.7770 C   0  0  1  0  0  0  0  0  0  0  0  0
   -0.6180   -2.6420    0.5690 C   0  0  0  0  0  0  0  0  0  0  0  0
   -4.6910   -0.8890   -1.4950 C   0  0  0  0  0  0  0  0  0  0  0  0
    4.5700   -1.8770   -0.0620 N   0  0  0  0  0  0  0  0  0  0  0  0
   -5.0350    2.1030    1.0110 O   0  0  0  0  0  0  0  0  0  0  0  0
   -2.8680    2.1280    1.4430 O   0  0  0  0  0  0  0  0  0  0  0  0
    2.3900   -1.8110    1.4570 O   0  0  0  0  0  0  0  0  0  0  0  0
   -0.0340   -3.3620   -0.2050 O   0  0  0  0  0  0  0  0  0  0  0  0
   -1.9380   -0.6280   -1.2750 S   0  0  0  0  0  0  0  0  0  0  0  0
    3.5360    3.3480   -2.0310 H   0  0  0  0  0  0  0  0  0  0  0  0
    0.9050   -0.5550   -0.9390 H   0  0  0  0  0  0  0  0  0  0  0  0
   -2.3580   -0.1160    2.1690 H   0  0  0  0  0  0  0  0  0  0  0  0
    3.2090   -1.2610   -1.5390 H   0  0  0  0  0  0  0  0  0  0  0  0
   -2.9530    2.0820   -1.1420 H   0  0  0  0  0  0  0  0  0  0  0  0
   -3.7120    1.4010   -2.6010 H   0  0  0  0  0  0  0  0  0  0  0  0
   -4.7190    1.8700   -1.2110 H   0  0  0  0  0  0  0  0  0  0  0  0
    2.8970    0.9770   -2.2190 H   0  0  0  0  0  0  0  0  0  0  0  0
    4.8470    4.1190   -0.0940 H   0  0  0  0  0  0  0  0  0  0  0  0
    5.5230    2.5190    1.6510 H   0  0  0  0  0  0  0  0  0  0  0  0
    4.8830    0.1490    1.4630 H   0  0  0  0  0  0  0  0  0  0  0  0
   -4.5510   -0.4840    0.9350 H   0  0  0  0  0  0  0  0  0  0  0  0
   -0.9410    0.7780    0.4730 H   0  0  0  0  0  0  0  0  0  0  0  0
    0.1180   -1.0810    1.8240 H   0  0  0  0  0  0  0  0  0  0  0  0
   -1.4740   -3.0140    1.1120 H   0  0  0  0  0  0  0  0  0  0  0  0
   -5.6750   -0.5300   -1.1910 H   0  0  0  0  0  0  0  0  0  0  0  0
   -4.6290   -0.9010   -2.5830 H   0  0  0  0  0  0  0  0  0  0  0  0
   -4.5370   -1.8970   -1.1100 H   0  0  0  0  0  0  0  0  0  0  0  0
    5.3690   -1.7650   -0.6690 H   0  0  0  0  0  0  0  0  0  0  0  0
    4.8150   -1.6830    0.8970 H   0  0  0  0  0  0  0  0  0  0  0  0
   -5.0820    3.0220    1.3060 H   0  0  0  0  0  0  0  0  0  0  0  0
  1 11  2  0  0  0  0
  1 10  1  0  0  0  0
  1 25  1  0  0  0  0
  2 10  2  0  0  0  0
  2 13  1  0  0  0  0
  2  7  1  0  0  0  0
  3  8  1  0  0  0  0
  3 18  1  0  0  0  0
  3 14  1  0  0  0  0
  3 24  1  0  0  0  0
  4 16  1  0  0  0  0
  4  9  1  0  0  0  0
  4 26  1  0  0  0  0
  5 21  2  0  0  0  0
  5 20  1  0  0  0  0
  5 14  1  0  0  0  0
  6 14  1  0  0  0  0
  6 15  1  0  0  0  0
  6 27  1  0  0  0  0
  7  9  1  0  0  0  0
  7 19  1  0  0  0  0
  7 28  1  0  0  0  0
  8 29  1  0  0  0  0
  8 30  1  0  0  0  0
  8 31  1  0  0  0  0
  9 22  2  0  0  0  0
 10 32  1  0  0  0  0
 11 12  1  0  0  0  0
 11 33  1  0  0  0  0
 12 13  2  0  0  0  0
 12 34  1  0  0  0  0
 13 35  1  0  0  0  0
 14 36  1  0  0  0  0
 15 24  1  0  0  0  0
 15 16  1  0  0  0  0
 15 37  1  0  0  0  0
 16 17  1  0  0  0  0
 16 38  1  0  0  0  0
 17 23  2  0  0  0  0
 17 39  1  0  0  0  0
 18 40  1  0  0  0  0
 18 41  1  0  0  0  0
 18 42  1  0  0  0  0
 19 43  1  0  0  0  0
 19 44  1  0  0  0  0
 20 45  1  0  0  0  0
M  END
> <OPENEYE_ISO_SMILES>
CC1([C@@H](N[C@H](S1)[C@@H](C=O)NC(=O)[C@@H](c2ccccc2)N)C(=O)O)C

> <OPENEYE_INCHI>
InChI=1S/C16H21N3O4S/c1-16(2)12(15(22)23)19-14(24-16)10(8-20)18-13(21)11(17)9-6-4-3-5-7-9/h3-8,10-12,14,19H,17H2,1-2H3,(H,18,21)(H,22,23)/t10-,11-,12+,14-/m1/s1

> <OPENEYE_INCHIKEY>
WHAIWIUXAXKSOT-NRWUCQMLSA-N

> <FORMULA>
C16H21N3O4S

$$$$
