REMARK  8 active torsions:
REMARK  status: ('A' for Active; 'I' for Inactive)
REMARK    1  A    between atoms: C_2  and  CA_7 
REMARK    2  A    between atoms: N_4  and  CA_16 
REMARK       I    between atoms: N_4  and  C_9 
REMARK    3  A    between atoms: C_5  and  OXT_20 
REMARK    4  A    between atoms: C_5  and  CA_14 
REMARK    5  A    between atoms: CA_7  and  C_9 
REMARK    6  A    between atoms: CA_7  and  N_19 
REMARK    7  A    between atoms: C_15  and  CA_16 
REMARK    8  A    between atoms: CA_16  and  C_17 
ROOT
HETATM    1  CA  UNL     1      -0.151  -1.224   0.777  1.00  0.00     0.189 C 
ENDROOT
BRANCH   1   2
HETATM    2  N   UNL     1       1.018  -0.966  -0.067  1.00  0.00    -0.345 N 
HETATM    3  C   UNL     1       2.250  -1.298   0.367  1.00  0.00     0.256 C 
HETATM    4  O   UNL     1       2.390  -1.811   1.457  1.00  0.00    -0.271 OA
HETATM    5  H   UNL     1       0.905  -0.555  -0.939  1.00  0.00     0.163 HD
BRANCH   3   6
HETATM    6  CA  UNL     1       3.452  -1.032  -0.501  1.00  0.00     0.342 C 
BRANCH   6   7
HETATM    7  C   UNL     1       3.844   0.419  -0.386  1.00  0.00    -0.016 A 
HETATM    8  C   UNL     1       3.470   1.316  -1.369  1.00  0.00     0.010 A 
HETATM    9  C   UNL     1       3.828   2.647  -1.263  1.00  0.00     0.001 A 
HETATM   10  C   UNL     1       4.566   3.079  -0.177  1.00  0.00     0.000 A 
HETATM   11  C   UNL     1       4.945   2.181   0.803  1.00  0.00     0.001 A 
HETATM   12  C   UNL     1       4.586   0.850   0.697  1.00  0.00     0.010 A 
ENDBRANCH   6   7
BRANCH   6  13
HETATM   13  N   UNL     1       4.570  -1.877  -0.062  1.00  0.00     0.096 N 
HETATM   14  H1  UNL     1       5.369  -1.765  -0.669  1.00  0.00     0.314 HD
HETATM   15  H2  UNL     1       4.815  -1.683   0.897  1.00  0.00     0.314 HD
ENDBRANCH   6  13
ENDBRANCH   3   6
ENDBRANCH   1   2
BRANCH   1  16
HETATM   16  C   UNL     1      -1.276  -0.257   0.402  1.00  0.00     0.312 C 
HETATM   17  N   UNL     1      -2.485  -0.488   1.240  1.00  0.00     0.116 N 
HETATM   18  CA  UNL     1      -3.678   0.080   0.606  1.00  0.00     0.336 C 
HETATM   19  H   UNL     1      -2.358  -0.116   2.169  1.00  0.00     0.318 HD
HETATM   20  C   UNL     1      -3.614   0.042  -0.933  1.00  0.00     0.044 C 
HETATM   21  C   UNL     1      -3.760   1.450  -1.513  1.00  0.00     0.029 C 
HETATM   22  C   UNL     1      -4.691  -0.889  -1.495  1.00  0.00     0.029 C 
HETATM   23  S   UNL     1      -1.938  -0.628  -1.275  1.00  0.00    -0.119 SA
BRANCH  18  24
HETATM   24  C   UNL     1      -3.830   1.512   1.051  1.00  0.00     0.175 C 
HETATM   25  O   UNL     1      -2.868   2.128   1.443  1.00  0.00    -0.648 OA
BRANCH  24  26
HETATM   26  OXT UNL     1      -5.035   2.103   1.011  1.00  0.00    -0.775 OA
HETATM   27  HXT UNL     1      -5.082   3.022   1.306  1.00  0.00     0.167 HD
ENDBRANCH  24  26
ENDBRANCH  18  24
ENDBRANCH   1  16
BRANCH   1  28
HETATM   28  C   UNL     1      -0.618  -2.642   0.569  1.00  0.00     0.259 C 
HETATM   29  O   UNL     1      -0.034  -3.362  -0.205  1.00  0.00    -0.305 OA
ENDBRANCH   1  28
TORSDOF 8
