ALP
  -OEChem-07282321083D

 31 31  0     1  0  0  0  0  0999 V2000
   -1.0720   -0.2770    2.6290 C   0  0  0  0  0  0  0  0  0  0  0  0
   -2.0680    0.0030    2.0050 O   0  0  0  0  0  0  0  0  0  0  0  0
   -1.1640   -0.6220    3.9220 O   0  0  0  0  0  0  0  0  0  0  0  0
    0.2740   -0.2390    1.9530 C   0  0  2  0  0  0  0  0  0  0  0  0
    1.1760    0.7670    2.6700 C   0  0  0  0  0  0  0  0  0  0  0  0
    1.3380    0.3730    4.0350 O   0  0  0  0  0  0  0  0  0  0  0  0
    0.1010    0.1810    0.4930 C   0  0  1  0  0  0  0  0  0  0  0  0
    1.7190    0.2030   -0.3990 S   0  0  0  0  0  0  0  0  0  0  0  0
    1.0680   -0.2170   -2.0720 C   0  0  0  0  0  0  0  0  0  0  0  0
    0.9790    1.0280   -2.9550 C   0  0  0  0  0  0  0  0  0  0  0  0
    1.9240   -1.2960   -2.7370 C   0  0  0  0  0  0  0  0  0  0  0  0
   -0.3390   -0.7580   -1.7350 C   0  0  2  0  0  0  0  0  0  0  0  0
   -1.3630    0.1670   -2.3400 C   0  0  0  0  0  0  0  0  0  0  0  0
   -1.8560    1.0440   -1.6690 O   0  0  0  0  0  0  0  0  0  0  0  0
   -1.7270    0.0190   -3.6230 O   0  0  0  0  0  0  0  0  0  0  0  0
   -0.6020   -0.8710   -0.2980 N   0  0  0  0  0  0  0  0  0  0  0  0
   -2.0290   -0.6470    4.3560 H   0  0  0  0  0  0  0  0  0  0  0  0
    0.7290   -1.2290    1.9950 H   0  0  0  0  0  0  0  0  0  0  0  0
    2.1500    0.7940    2.1820 H   0  0  0  0  0  0  0  0  0  0  0  0
    0.7210    1.7560    2.6290 H   0  0  0  0  0  0  0  0  0  0  0  0
    1.9120    1.0330    4.4490 H   0  0  0  0  0  0  0  0  0  0  0  0
   -0.4070    1.1420    0.4170 H   0  0  0  0  0  0  0  0  0  0  0  0
    1.9810    1.4200   -3.1310 H   0  0  0  0  0  0  0  0  0  0  0  0
    0.5180    0.7670   -3.9070 H   0  0  0  0  0  0  0  0  0  0  0  0
    0.3760    1.7860   -2.4540 H   0  0  0  0  0  0  0  0  0  0  0  0
    2.9270   -0.9070   -2.9130 H   0  0  0  0  0  0  0  0  0  0  0  0
    1.9820   -2.1680   -2.0840 H   0  0  0  0  0  0  0  0  0  0  0  0
    1.4730   -1.5830   -3.6870 H   0  0  0  0  0  0  0  0  0  0  0  0
   -0.4520   -1.7430   -2.1880 H   0  0  0  0  0  0  0  0  0  0  0  0
   -2.3840    0.6130   -4.0110 H   0  0  0  0  0  0  0  0  0  0  0  0
   -1.5910   -0.7170   -0.1710 H   0  0  0  0  0  0  0  0  0  0  0  0
  1  2  2  0  0  0  0
  1  3  1  0  0  0  0
  1  4  1  0  0  0  0
  3 17  1  0  0  0  0
  4  5  1  0  0  0  0
  4  7  1  0  0  0  0
  4 18  1  0  0  0  0
  5  6  1  0  0  0  0
  5 19  1  0  0  0  0
  5 20  1  0  0  0  0
  6 21  1  0  0  0  0
  7  8  1  0  0  0  0
  7 16  1  0  0  0  0
  7 22  1  0  0  0  0
  8  9  1  0  0  0  0
  9 10  1  0  0  0  0
  9 11  1  0  0  0  0
  9 12  1  0  0  0  0
 10 23  1  0  0  0  0
 10 24  1  0  0  0  0
 10 25  1  0  0  0  0
 11 26  1  0  0  0  0
 11 27  1  0  0  0  0
 11 28  1  0  0  0  0
 12 13  1  0  0  0  0
 12 16  1  0  0  0  0
 12 29  1  0  0  0  0
 13 14  2  0  0  0  0
 13 15  1  0  0  0  0
 15 30  1  0  0  0  0
 16 31  1  0  0  0  0
M  END
> <OPENEYE_ISO_SMILES>
CC1([C@@H](N[C@H](S1)[C@@H](CO)C(=O)O)C(=O)O)C

> <OPENEYE_INCHI>
InChI=1S/C9H15NO5S/c1-9(2)5(8(14)15)10-6(16-9)4(3-11)7(12)13/h4-6,10-11H,3H2,1-2H3,(H,12,13)(H,14,15)/t4-,5+,6-/m1/s1

> <OPENEYE_INCHIKEY>
NVIIKEPLEZSMNU-NGJCXOISSA-N

> <FORMULA>
C9H15NO5S

$$$$
