AP3
  -OEChem-07282321083D

 37 37  0     1  0  0  0  0  0999 V2000
   -1.4460   -0.4970    2.2540 C   0  0  0  0  0  0  0  0  0  0  0  0
   -1.7000    0.1470    3.2440 O   0  0  0  0  0  0  0  0  0  0  0  0
   -2.4150   -1.1930    1.6400 O   0  0  0  0  0  0  0  0  0  0  0  0
   -0.0410   -0.5190    1.7100 C   0  0  2  0  0  0  0  0  0  0  0  0
    0.8600    0.3490    2.5890 C   0  0  0  0  0  0  0  0  0  0  0  0
    2.1920    0.3270    2.0730 O   0  0  0  0  0  0  0  0  0  0  0  0
   -0.0390    0.0260    0.2810 C   0  0  1  0  0  0  0  0  0  0  0  0
    1.6280   -0.1310   -0.4980 S   0  0  0  0  0  0  0  0  0  0  0  0
    1.0510   -0.3300   -2.2390 C   0  0  0  0  0  0  0  0  0  0  0  0
    1.7880   -1.4770   -2.9340 C   0  0  0  0  0  0  0  0  0  0  0  0
    1.2130    0.9740   -3.0220 C   0  0  0  0  0  0  0  0  0  0  0  0
   -0.4410   -0.6730   -2.0390 C   0  0  2  0  0  0  0  0  0  0  0  0
   -1.2700    0.4370   -2.6310 C   0  0  0  0  0  0  0  0  0  0  0  0
   -1.6800    1.3270   -1.9240 O   0  0  0  0  0  0  0  0  0  0  0  0
   -1.5530    0.4370   -3.9430 O   0  0  0  0  0  0  0  0  0  0  0  0
   -0.8260   -0.8480   -0.6370 N   0  0  0  0  0  0  0  0  0  0  0  0
    0.8580   -0.1970    4.0180 C   0  0  0  0  0  0  0  0  0  0  0  0
    0.3370    1.7870    2.5920 C   0  0  0  0  0  0  0  0  0  0  0  0
   -3.3170   -1.1780    1.9890 H   0  0  0  0  0  0  0  0  0  0  0  0
    0.3300   -1.5430    1.7080 H   0  0  0  0  0  0  0  0  0  0  0  0
    2.4830   -0.5940    2.0880 H   0  0  0  0  0  0  0  0  0  0  0  0
   -0.3960    1.0560    0.2520 H   0  0  0  0  0  0  0  0  0  0  0  0
    2.8370   -1.2090   -3.0620 H   0  0  0  0  0  0  0  0  0  0  0  0
    1.7150   -2.3770   -2.3240 H   0  0  0  0  0  0  0  0  0  0  0  0
    1.3380   -1.6600   -3.9090 H   0  0  0  0  0  0  0  0  0  0  0  0
    2.2730    1.1920   -3.1490 H   0  0  0  0  0  0  0  0  0  0  0  0
    0.7430    0.8710   -4.0010 H   0  0  0  0  0  0  0  0  0  0  0  0
    0.7370    1.7880   -2.4750 H   0  0  0  0  0  0  0  0  0  0  0  0
   -0.6620   -1.5950   -2.5780 H   0  0  0  0  0  0  0  0  0  0  0  0
   -2.0850    1.1500   -4.3230 H   0  0  0  0  0  0  0  0  0  0  0  0
   -1.7890   -0.5550   -0.5620 H   0  0  0  0  0  0  0  0  0  0  0  0
    1.5000    0.4210    4.6450 H   0  0  0  0  0  0  0  0  0  0  0  0
   -0.1580   -0.1810    4.4120 H   0  0  0  0  0  0  0  0  0  0  0  0
    1.2300   -1.2210    4.0160 H   0  0  0  0  0  0  0  0  0  0  0  0
   -0.6790    1.8030    2.9860 H   0  0  0  0  0  0  0  0  0  0  0  0
    0.9790    2.4050    3.2190 H   0  0  0  0  0  0  0  0  0  0  0  0
    0.3380    2.1760    1.5740 H   0  0  0  0  0  0  0  0  0  0  0  0
  1  2  2  0  0  0  0
  1  3  1  0  0  0  0
  1  4  1  0  0  0  0
  3 19  1  0  0  0  0
  4  5  1  0  0  0  0
  4  7  1  0  0  0  0
  4 20  1  0  0  0  0
  5  6  1  0  0  0  0
  5 17  1  0  0  0  0
  5 18  1  0  0  0  0
  6 21  1  0  0  0  0
  7  8  1  0  0  0  0
  7 16  1  0  0  0  0
  7 22  1  0  0  0  0
  8  9  1  0  0  0  0
  9 10  1  0  0  0  0
  9 11  1  0  0  0  0
  9 12  1  0  0  0  0
 10 23  1  0  0  0  0
 10 24  1  0  0  0  0
 10 25  1  0  0  0  0
 11 26  1  0  0  0  0
 11 27  1  0  0  0  0
 11 28  1  0  0  0  0
 12 13  1  0  0  0  0
 12 16  1  0  0  0  0
 12 29  1  0  0  0  0
 13 14  2  0  0  0  0
 13 15  1  0  0  0  0
 15 30  1  0  0  0  0
 16 31  1  0  0  0  0
 17 32  1  0  0  0  0
 17 33  1  0  0  0  0
 17 34  1  0  0  0  0
 18 35  1  0  0  0  0
 18 36  1  0  0  0  0
 18 37  1  0  0  0  0
M  END
> <OPENEYE_ISO_SMILES>
CC1([C@@H](N[C@H](S1)[C@H](C(=O)O)C(C)(C)O)C(=O)O)C

> <OPENEYE_INCHI>
InChI=1S/C11H19NO5S/c1-10(2,17)5(8(13)14)7-12-6(9(15)16)11(3,4)18-7/h5-7,12,17H,1-4H3,(H,13,14)(H,15,16)/t5-,6+,7-/m1/s1

> <OPENEYE_INCHIKEY>
MAATUKZAHQWKEG-DSYKOEDSSA-N

> <FORMULA>
C11H19NO5S

$$$$
