APB
  -OEChem-07282321083D

 18 18  0     0  0  0  0  0  0999 V2000
   -0.2330    0.0000   -1.9940 B   0  0  0  0  0  0  0  0  0  0  0  0
    0.7770    0.0000   -2.9910 O   0  0  0  0  0  0  0  0  0  0  0  0
   -1.6020    0.0010   -2.3710 O   0  0  0  0  0  0  0  0  0  0  0  0
    0.1620    0.0000   -0.4750 C   0  0  0  0  0  0  0  0  0  0  0  0
   -0.8270   -0.0050    0.5040 C   0  0  0  0  0  0  0  0  0  0  0  0
   -0.4710    0.0000    1.8440 C   0  0  0  0  0  0  0  0  0  0  0  0
    0.8710    0.0000    2.2060 C   0  0  0  0  0  0  0  0  0  0  0  0
    1.8520    0.0000    1.2330 C   0  0  0  0  0  0  0  0  0  0  0  0
    1.5050   -0.0000   -0.1030 C   0  0  0  0  0  0  0  0  0  0  0  0
   -1.4600    0.0010    2.8310 N   0  0  0  0  0  0  0  0  0  0  0  0
    0.3260    0.0000   -3.8460 H   0  0  0  0  0  0  0  0  0  0  0  0
   -2.1170    0.0010   -1.5520 H   0  0  0  0  0  0  0  0  0  0  0  0
   -1.8690   -0.0050    0.2210 H   0  0  0  0  0  0  0  0  0  0  0  0
    1.1480    0.0010    3.2500 H   0  0  0  0  0  0  0  0  0  0  0  0
    2.8940    0.0000    1.5180 H   0  0  0  0  0  0  0  0  0  0  0  0
    2.2750   -0.0000   -0.8600 H   0  0  0  0  0  0  0  0  0  0  0  0
   -1.2100    0.0010    3.7680 H   0  0  0  0  0  0  0  0  0  0  0  0
   -2.3970    0.0050    2.5780 H   0  0  0  0  0  0  0  0  0  0  0  0
  1  2  1  0  0  0  0
  1  3  1  0  0  0  0
  1  4  1  0  0  0  0
  2 11  1  0  0  0  0
  3 12  1  0  0  0  0
  4  5  1  0  0  0  0
  4  9  2  0  0  0  0
  5  6  2  0  0  0  0
  5 13  1  0  0  0  0
  6  7  1  0  0  0  0
  6 10  1  0  0  0  0
  7  8  2  0  0  0  0
  7 14  1  0  0  0  0
  8  9  1  0  0  0  0
  8 15  1  0  0  0  0
  9 16  1  0  0  0  0
 10 17  1  0  0  0  0
 10 18  1  0  0  0  0
M  END
> <OPENEYE_ISO_SMILES>
B(c1cccc(c1)N)(O)O

> <OPENEYE_INCHI>
InChI=1S/C6H8BNO2/c8-6-3-1-2-5(4-6)7(9)10/h1-4,9-10H,8H2

> <OPENEYE_INCHIKEY>
JMZFEHDNIAQMNB-UHFFFAOYSA-N

> <FORMULA>
C6H8BNO2

$$$$
