AXL
  -OEChem-07282321083D

 46 47  0     1  0  0  0  0  0999 V2000
   -1.1340   -2.7300    0.5500 C   0  0  0  0  0  0  0  0  0  0  0  0
   -0.6400   -3.4900   -0.2480 O   0  0  0  0  0  0  0  0  0  0  0  0
   -0.5130   -1.3780    0.7880 C   0  0  2  0  0  0  0  0  0  0  0  0
   -1.5280   -0.2840    0.4490 C   0  0  1  0  0  0  0  0  0  0  0  0
   -2.0860   -0.4150   -1.3010 S   0  0  0  0  0  0  0  0  0  0  0  0
   -3.7270    0.3540   -0.9990 C   0  0  0  0  0  0  0  0  0  0  0  0
   -4.8260   -0.4160   -1.7350 C   0  0  0  0  0  0  0  0  0  0  0  0
   -3.7200    1.8220   -1.4290 C   0  0  0  0  0  0  0  0  0  0  0  0
   -3.9060    0.2320    0.5260 C   0  0  2  0  0  0  0  0  0  0  0  0
   -3.9810    1.6150    1.1190 C   0  0  0  0  0  0  0  0  0  0  0  0
   -5.1300    2.3070    1.0640 O   0  0  0  0  0  0  0  0  0  0  0  0
   -3.0070    2.1020    1.6430 O   0  0  0  0  0  0  0  0  0  0  0  0
   -2.8120   -0.5010    1.1710 N   0  0  0  0  0  0  0  0  0  0  0  0
    0.6700   -1.2280   -0.0640 N   0  0  0  0  0  0  0  0  0  0  0  0
    1.8610   -1.7040    0.3480 C   0  0  0  0  0  0  0  0  0  0  0  0
    1.9540   -2.2570    1.4240 O   0  0  0  0  0  0  0  0  0  0  0  0
    3.0780   -1.5490   -0.5270 C   0  0  2  0  0  0  0  0  0  0  0  0
    4.1000   -2.5230   -0.1220 N   0  0  0  0  0  0  0  0  0  0  0  0
    3.6280   -0.1540   -0.3820 C   0  0  0  0  0  0  0  0  0  0  0  0
    3.3450    0.8030   -1.3390 C   0  0  0  0  0  0  0  0  0  0  0  0
    3.8480    2.0830   -1.2070 C   0  0  0  0  0  0  0  0  0  0  0  0
    4.6370    2.4080   -0.1140 C   0  0  0  0  0  0  0  0  0  0  0  0
    4.9190    1.4460    0.8450 C   0  0  0  0  0  0  0  0  0  0  0  0
    4.4090    0.1690    0.7120 C   0  0  0  0  0  0  0  0  0  0  0  0
    5.1330    3.6670    0.0180 O   0  0  0  0  0  0  0  0  0  0  0  0
   -2.0240   -3.0180    1.0900 H   0  0  0  0  0  0  0  0  0  0  0  0
   -0.2210   -1.2910    1.8340 H   0  0  0  0  0  0  0  0  0  0  0  0
   -1.1200    0.7050    0.6580 H   0  0  0  0  0  0  0  0  0  0  0  0
   -4.8310   -1.4520   -1.3980 H   0  0  0  0  0  0  0  0  0  0  0  0
   -5.7930    0.0400   -1.5230 H   0  0  0  0  0  0  0  0  0  0  0  0
   -4.6360   -0.3840   -2.8080 H   0  0  0  0  0  0  0  0  0  0  0  0
   -3.5150    1.8880   -2.4970 H   0  0  0  0  0  0  0  0  0  0  0  0
   -4.6930    2.2670   -1.2180 H   0  0  0  0  0  0  0  0  0  0  0  0
   -2.9490    2.3590   -0.8770 H   0  0  0  0  0  0  0  0  0  0  0  0
   -4.8430   -0.2880    0.7290 H   0  0  0  0  0  0  0  0  0  0  0  0
   -5.1300    3.1900    1.4580 H   0  0  0  0  0  0  0  0  0  0  0  0
   -3.0270   -1.4840    1.2400 H   0  0  0  0  0  0  0  0  0  0  0  0
    0.5950   -0.7850   -0.9240 H   0  0  0  0  0  0  0  0  0  0  0  0
    2.8020   -1.7240   -1.5670 H   0  0  0  0  0  0  0  0  0  0  0  0
    4.3730   -2.3820    0.8390 H   0  0  0  0  0  0  0  0  0  0  0  0
    3.7790   -3.4680   -0.2710 H   0  0  0  0  0  0  0  0  0  0  0  0
    2.7310    0.5490   -2.1900 H   0  0  0  0  0  0  0  0  0  0  0  0
    3.6270    2.8300   -1.9560 H   0  0  0  0  0  0  0  0  0  0  0  0
    5.5330    1.6970    1.6980 H   0  0  0  0  0  0  0  0  0  0  0  0
    4.6250   -0.5780    1.4610 H   0  0  0  0  0  0  0  0  0  0  0  0
    4.5550    4.2680    0.5060 H   0  0  0  0  0  0  0  0  0  0  0  0
  1  2  2  0  0  0  0
  1  3  1  0  0  0  0
  1 26  1  0  0  0  0
  3  4  1  0  0  0  0
  3 14  1  0  0  0  0
  3 27  1  0  0  0  0
  4  5  1  0  0  0  0
  4 13  1  0  0  0  0
  4 28  1  0  0  0  0
  5  6  1  0  0  0  0
  6  7  1  0  0  0  0
  6  8  1  0  0  0  0
  6  9  1  0  0  0  0
  7 29  1  0  0  0  0
  7 30  1  0  0  0  0
  7 31  1  0  0  0  0
  8 32  1  0  0  0  0
  8 33  1  0  0  0  0
  8 34  1  0  0  0  0
  9 10  1  0  0  0  0
  9 13  1  0  0  0  0
  9 35  1  0  0  0  0
 10 11  1  0  0  0  0
 10 12  2  0  0  0  0
 11 36  1  0  0  0  0
 13 37  1  0  0  0  0
 14 15  1  0  0  0  0
 14 38  1  0  0  0  0
 15 16  2  0  0  0  0
 15 17  1  0  0  0  0
 17 18  1  0  0  0  0
 17 19  1  0  0  0  0
 17 39  1  0  0  0  0
 18 40  1  0  0  0  0
 18 41  1  0  0  0  0
 19 20  2  0  0  0  0
 19 24  1  0  0  0  0
 20 21  1  0  0  0  0
 20 42  1  0  0  0  0
 21 22  2  0  0  0  0
 21 43  1  0  0  0  0
 22 23  1  0  0  0  0
 22 25  1  0  0  0  0
 23 24  2  0  0  0  0
 23 44  1  0  0  0  0
 24 45  1  0  0  0  0
 25 46  1  0  0  0  0
M  END
> <OPENEYE_ISO_SMILES>
CC1([C@@H](N[C@H](S1)[C@@H](C=O)NC(=O)[C@@H](c2ccc(cc2)O)N)C(=O)O)C

> <OPENEYE_INCHI>
InChI=1S/C16H21N3O5S/c1-16(2)12(15(23)24)19-14(25-16)10(7-20)18-13(22)11(17)8-3-5-9(21)6-4-8/h3-7,10-12,14,19,21H,17H2,1-2H3,(H,18,22)(H,23,24)/t10-,11-,12+,14-/m1/s1

> <OPENEYE_INCHIKEY>
SMLJDSWXGVMNTH-NRWUCQMLSA-N

> <FORMULA>
C16H21N3O5S

$$$$
