REMARK  13 active torsions:
REMARK  status: ('A' for Active; 'I' for Inactive)
REMARK    1  A    between atoms: O_5  and  N_8 
REMARK    2  A    between atoms: O_5  and  C_17 
REMARK    3  A    between atoms: N_6  and  C_12 
REMARK    4  A    between atoms: N_6  and  S_11 
REMARK    5  A    between atoms: N_7  and  CA_13 
REMARK       I    between atoms: N_7  and  C_15 
REMARK    6  A    between atoms: N_10  and  C_20 
REMARK    7  A    between atoms: S_11  and  O_27 
REMARK    8  A    between atoms: C_12  and  CA_13 
REMARK    9  A    between atoms: CA_13  and  C_14 
REMARK   10  A    between atoms: C_15  and  C_16 
REMARK   11  A    between atoms: C_16  and  C_18 
REMARK   12  A    between atoms: C_17  and  C_23 
REMARK   13  A    between atoms: C_23  and  O_25 
ROOT
HETATM    1  N   UNL     1      -3.033   0.397  -0.110  1.00  0.00    -0.125 NA
HETATM    2  C   UNL     1      -1.772   0.723  -0.107  1.00  0.00     0.180 C 
ENDROOT
BRANCH   2   3
HETATM    3  C   UNL     1      -0.734  -0.331  -0.191  1.00  0.00     0.275 C 
HETATM    4  O   UNL     1      -1.058  -1.491  -0.359  1.00  0.00    -0.266 OA
HETATM    5  N   UNL     1       0.569  -0.005  -0.079  1.00  0.00    -0.343 N 
HETATM    6  H   UNL     1       0.832   0.927  -0.022  1.00  0.00     0.163 HD
BRANCH   5   7
HETATM    7  CA  UNL     1       1.587  -1.057  -0.046  1.00  0.00     0.169 C 
BRANCH   7   8
HETATM    8  C   UNL     1       2.922  -0.490  -0.534  1.00  0.00     0.120 C 
HETATM    9  C   UNL     1       2.765   0.022  -1.967  1.00  0.00     0.035 C 
BRANCH   8  10
HETATM   10  N   UNL     1       3.941  -1.543  -0.500  1.00  0.00    -0.301 N 
HETATM   11  H   UNL     1       3.698  -2.460  -0.702  1.00  0.00     0.174 HD
BRANCH  10  12
HETATM   12  S   UNL     1       5.508  -1.166  -0.117  1.00  0.00     0.195 S 
HETATM   13  O   UNL     1       5.857  -0.044  -0.916  1.00  0.00    -0.585 OA
HETATM   14  O   UNL     1       6.230  -2.390  -0.137  1.00  0.00    -0.585 OA
BRANCH  12  15
HETATM   15  O   UNL     1       5.515  -0.686   1.327  1.00  0.00    -0.279 OA
HETATM   16  H   UNL     1       6.391  -0.438   1.654  1.00  0.00     0.234 HD
ENDBRANCH  12  15
ENDBRANCH  10  12
ENDBRANCH   8  10
ENDBRANCH   7   8
BRANCH   7  17
HETATM   17  C   UNL     1       1.742  -1.561   1.366  1.00  0.00     0.258 C 
HETATM   18  O   UNL     1       1.071  -1.090   2.252  1.00  0.00    -0.305 OA
ENDBRANCH   7  17
ENDBRANCH   5   7
ENDBRANCH   2   3
BRANCH   2  19
HETATM   19  C   UNL     1      -1.376   2.145  -0.022  1.00  0.00     0.102 A 
HETATM   20  N   UNL     1      -0.104   2.527   0.089  1.00  0.00    -0.222 NA
HETATM   21  C   UNL     1       0.122   3.802   0.156  1.00  0.00     0.164 A 
HETATM   22  S   UNL     1      -1.405   4.675   0.074  1.00  0.00    -0.062 SA
HETATM   23  C   UNL     1      -2.276   3.148  -0.051  1.00  0.00     0.087 A 
BRANCH  21  24
HETATM   24  N   UNL     1       1.371   4.387   0.273  1.00  0.00    -0.378 N 
HETATM   25  H   UNL     1       1.452   5.353   0.316  1.00  0.00     0.158 HD
HETATM   26  H   UNL     1       2.166   3.832   0.311  1.00  0.00     0.158 HD
ENDBRANCH  21  24
ENDBRANCH   2  19
BRANCH   1  27
HETATM   27  O   UNL     1      -3.412  -0.967  -0.079  1.00  0.00    -0.234 OA
BRANCH  27  28
HETATM   28  C   UNL     1      -4.826  -1.179  -0.086  1.00  0.00     0.168 C 
HETATM   29  C   UNL     1      -5.426  -0.571  -1.355  1.00  0.00     0.060 C 
HETATM   30  C   UNL     1      -5.446  -0.510   1.143  1.00  0.00     0.060 C 
BRANCH  28  31
HETATM   31  C   UNL     1      -5.113  -2.658  -0.052  1.00  0.00     0.178 C 
HETATM   32  O   UNL     1      -4.201  -3.450  -0.025  1.00  0.00    -0.648 OA
BRANCH  31  33
HETATM   33  O   UNL     1      -6.381  -3.095  -0.052  1.00  0.00    -0.774 OA
HETATM   34  H   UNL     1      -6.516  -4.052  -0.029  1.00  0.00     0.167 HD
ENDBRANCH  31  33
ENDBRANCH  28  31
ENDBRANCH  27  28
ENDBRANCH   1  27
TORSDOF 13
