AZR
  -OEChem-07282321083D

 47 47  0     1  0  0  0  0  0999 V2000
    2.7650    0.0220   -1.9670 C   0  0  0  0  0  0  0  0  0  0  0  0
   -1.4050    4.6750    0.0740 S   0  0  0  0  0  0  0  0  0  0  0  0
    1.0710   -1.0900    2.2520 O   0  0  0  0  0  0  0  0  0  0  0  0
   -1.0580   -1.4910   -0.3590 O   0  0  0  0  0  0  0  0  0  0  0  0
   -3.4120   -0.9670   -0.0790 O   0  0  0  0  0  0  0  0  0  0  0  0
    3.9410   -1.5430   -0.5000 N   0  0  0  0  0  0  0  0  0  0  0  0
    0.5690   -0.0050   -0.0790 N   0  0  0  0  0  0  0  0  0  0  0  0
   -3.0330    0.3970   -0.1100 N   0  0  0  0  0  0  0  0  0  0  0  0
   -0.1040    2.5270    0.0890 N   0  0  0  0  0  0  0  0  0  0  0  0
    1.3710    4.3870    0.2730 N   0  0  0  0  0  0  0  0  0  0  0  0
    5.5080   -1.1660   -0.1170 S   0  0  0  0  0  0  0  0  0  0  0  0
    2.9220   -0.4900   -0.5340 C   0  0  2  0  0  0  0  0  0  0  0  0
    1.5870   -1.0570   -0.0460 C   0  0  1  0  0  0  0  0  0  0  0  0
    1.7420   -1.5610    1.3660 C   0  0  0  0  0  0  0  0  0  0  0  0
   -0.7340   -0.3310   -0.1910 C   0  0  0  0  0  0  0  0  0  0  0  0
   -1.7720    0.7230   -0.1070 C   0  0  0  0  0  0  0  0  0  0  0  0
   -4.8260   -1.1790   -0.0860 C   0  0  0  0  0  0  0  0  0  0  0  0
   -1.3760    2.1450   -0.0220 C   0  0  0  0  0  0  0  0  0  0  0  0
   -2.2760    3.1480   -0.0510 C   0  0  0  0  0  0  0  0  0  0  0  0
    0.1220    3.8020    0.1560 C   0  0  0  0  0  0  0  0  0  0  0  0
   -5.4460   -0.5100    1.1430 C   0  0  0  0  0  0  0  0  0  0  0  0
   -5.4260   -0.5710   -1.3550 C   0  0  0  0  0  0  0  0  0  0  0  0
   -5.1130   -2.6580   -0.0520 C   0  0  0  0  0  0  0  0  0  0  0  0
   -4.2010   -3.4500   -0.0250 O   0  0  0  0  0  0  0  0  0  0  0  0
   -6.3810   -3.0950   -0.0520 O   0  0  0  0  0  0  0  0  0  0  0  0
    5.8570   -0.0440   -0.9160 O   0  0  0  0  0  0  0  0  0  0  0  0
    5.5150   -0.6860    1.3270 O   0  0  0  0  0  0  0  0  0  0  0  0
    6.2300   -2.3900   -0.1370 O   0  0  0  0  0  0  0  0  0  0  0  0
    2.0070    0.8040   -1.9920 H   0  0  0  0  0  0  0  0  0  0  0  0
    3.7160    0.4250   -2.3150 H   0  0  0  0  0  0  0  0  0  0  0  0
    2.4600   -0.8000   -2.6150 H   0  0  0  0  0  0  0  0  0  0  0  0
    3.6980   -2.4600   -0.7020 H   0  0  0  0  0  0  0  0  0  0  0  0
    0.8320    0.9270   -0.0220 H   0  0  0  0  0  0  0  0  0  0  0  0
    1.4520    5.3530    0.3160 H   0  0  0  0  0  0  0  0  0  0  0  0
    2.1660    3.8320    0.3110 H   0  0  0  0  0  0  0  0  0  0  0  0
    3.2270    0.3310    0.1140 H   0  0  0  0  0  0  0  0  0  0  0  0
    1.2830   -1.8790   -0.6940 H   0  0  0  0  0  0  0  0  0  0  0  0
    2.4540   -2.3440    1.5850 H   0  0  0  0  0  0  0  0  0  0  0  0
   -3.3460    3.0350   -0.1350 H   0  0  0  0  0  0  0  0  0  0  0  0
   -5.2390    0.5590    1.1180 H   0  0  0  0  0  0  0  0  0  0  0  0
   -6.5240   -0.6710    1.1380 H   0  0  0  0  0  0  0  0  0  0  0  0
   -5.0180   -0.9430    2.0470 H   0  0  0  0  0  0  0  0  0  0  0  0
   -4.9840   -1.0470   -2.2300 H   0  0  0  0  0  0  0  0  0  0  0  0
   -6.5040   -0.7320   -1.3600 H   0  0  0  0  0  0  0  0  0  0  0  0
   -5.2190    0.4980   -1.3800 H   0  0  0  0  0  0  0  0  0  0  0  0
   -6.5160   -4.0520   -0.0290 H   0  0  0  0  0  0  0  0  0  0  0  0
    6.3910   -0.4380    1.6540 H   0  0  0  0  0  0  0  0  0  0  0  0
  1 12  1  0  0  0  0
  2 20  1  0  0  0  0
  4 15  2  0  0  0  0
  5  8  1  0  0  0  0
  5 17  1  0  0  0  0
  6 12  1  0  0  0  0
  6 11  1  0  0  0  0
  9 20  2  0  0  0  0
 11 27  1  0  0  0  0
  7 13  1  0  0  0  0
 12 13  1  0  0  0  0
 13 14  1  0  0  0  0
  3 14  2  0  0  0  0
  7 15  1  0  0  0  0
 15 16  1  0  0  0  0
  8 16  2  0  0  0  0
 16 18  1  0  0  0  0
 17 23  1  0  0  0  0
 17 22  1  0  0  0  0
  9 18  1  0  0  0  0
  2 19  1  0  0  0  0
 18 19  2  0  0  0  0
 10 20  1  0  0  0  0
 17 21  1  0  0  0  0
 23 25  1  0  0  0  0
 23 24  2  0  0  0  0
 11 26  2  0  0  0  0
 11 28  2  0  0  0  0
  1 29  1  0  0  0  0
  1 30  1  0  0  0  0
  1 31  1  0  0  0  0
  6 32  1  0  0  0  0
  7 33  1  0  0  0  0
 10 34  1  0  0  0  0
 10 35  1  0  0  0  0
 12 36  1  0  0  0  0
 13 37  1  0  0  0  0
 14 38  1  0  0  0  0
 19 39  1  0  0  0  0
 21 40  1  0  0  0  0
 21 41  1  0  0  0  0
 21 42  1  0  0  0  0
 22 43  1  0  0  0  0
 22 44  1  0  0  0  0
 22 45  1  0  0  0  0
 25 46  1  0  0  0  0
 27 47  1  0  0  0  0
M  END
> <OPENEYE_ISO_SMILES>
C[C@@H]([C@@H](C=O)NC(=O)/C(=N\OC(C)(C)C(=O)O)/c1csc(n1)N)NS(=O)(=O)O

> <OPENEYE_INCHI>
InChI=1S/C13H19N5O8S2/c1-6(18-28(23,24)25)7(4-19)15-10(20)9(8-5-27-12(14)16-8)17-26-13(2,3)11(21)22/h4-7,18H,1-3H3,(H2,14,16)(H,15,20)(H,21,22)(H,23,24,25)/b17-9-/t6-,7+/m0/s1

> <OPENEYE_INCHIKEY>
OEVQTUTXOVDNJO-GEEOIBTQSA-N

> <FORMULA>
C13H19N5O8S2

$$$$
