BDB
  -OEChem-07282321083D

 30 31  0     0  0  0  0  0  0999 V2000
    0.0000   -0.0000    5.0760 B   0  0  0  0  0  0  0  0  0  0  0  0
    1.1550   -0.4240    5.7850 O   0  0  0  0  0  0  0  0  0  0  0  0
   -1.1530    0.4220    5.7870 O   0  0  0  0  0  0  0  0  0  0  0  0
   -0.0000   -0.0000    3.5060 C   0  0  0  0  0  0  0  0  0  0  0  0
   -1.1350    0.4150    2.8100 C   0  0  0  0  0  0  0  0  0  0  0  0
   -1.1370    0.4150    1.4330 C   0  0  0  0  0  0  0  0  0  0  0  0
   -0.0030   -0.0000    0.7340 C   0  0  0  0  0  0  0  0  0  0  0  0
    1.1320   -0.4150    1.4310 C   0  0  0  0  0  0  0  0  0  0  0  0
    1.1340   -0.4110    2.8080 C   0  0  0  0  0  0  0  0  0  0  0  0
   -0.0040   -0.0000   -0.7470 C   0  0  0  0  0  0  0  0  0  0  0  0
    1.1330    0.4040   -1.4460 C   0  0  0  0  0  0  0  0  0  0  0  0
    1.1310    0.4030   -2.8240 C   0  0  0  0  0  0  0  0  0  0  0  0
   -0.0060   -0.0020   -3.5200 C   0  0  0  0  0  0  0  0  0  0  0  0
   -1.1440   -0.4070   -2.8210 C   0  0  0  0  0  0  0  0  0  0  0  0
   -1.1410   -0.4110   -1.4440 C   0  0  0  0  0  0  0  0  0  0  0  0
   -0.0080   -0.0030   -5.0900 B   0  0  0  0  0  0  0  0  0  0  0  0
   -1.1670   -0.4160   -5.7980 O   0  0  0  0  0  0  0  0  0  0  0  0
    1.1490    0.4090   -5.8010 O   0  0  0  0  0  0  0  0  0  0  0  0
    0.9490   -0.3480    6.7270 H   0  0  0  0  0  0  0  0  0  0  0  0
   -0.9450    0.3460    6.7290 H   0  0  0  0  0  0  0  0  0  0  0  0
   -2.0130    0.7370    3.3510 H   0  0  0  0  0  0  0  0  0  0  0  0
   -2.0150    0.7370    0.8940 H   0  0  0  0  0  0  0  0  0  0  0  0
    2.0090   -0.7380    0.8900 H   0  0  0  0  0  0  0  0  0  0  0  0
    2.0130   -0.7320    3.3470 H   0  0  0  0  0  0  0  0  0  0  0  0
    2.0140    0.7190   -0.9070 H   0  0  0  0  0  0  0  0  0  0  0  0
    2.0120    0.7180   -3.3650 H   0  0  0  0  0  0  0  0  0  0  0  0
   -2.0250   -0.7210   -3.3600 H   0  0  0  0  0  0  0  0  0  0  0  0
   -2.0220   -0.7250   -0.9030 H   0  0  0  0  0  0  0  0  0  0  0  0
   -0.9590   -0.3420   -6.7400 H   0  0  0  0  0  0  0  0  0  0  0  0
    1.8140    0.6460   -5.1400 H   0  0  0  0  0  0  0  0  0  0  0  0
  1  2  1  0  0  0  0
  1  3  1  0  0  0  0
  1  4  1  0  0  0  0
  2 19  1  0  0  0  0
  3 20  1  0  0  0  0
  4  5  2  0  0  0  0
  4  9  1  0  0  0  0
  5  6  1  0  0  0  0
  5 21  1  0  0  0  0
  6  7  2  0  0  0  0
  6 22  1  0  0  0  0
  7  8  1  0  0  0  0
  7 10  1  0  0  0  0
  8  9  2  0  0  0  0
  8 23  1  0  0  0  0
  9 24  1  0  0  0  0
 10 11  2  0  0  0  0
 10 15  1  0  0  0  0
 11 12  1  0  0  0  0
 11 25  1  0  0  0  0
 12 13  2  0  0  0  0
 12 26  1  0  0  0  0
 13 14  1  0  0  0  0
 13 16  1  0  0  0  0
 14 15  2  0  0  0  0
 14 27  1  0  0  0  0
 15 28  1  0  0  0  0
 16 17  1  0  0  0  0
 16 18  1  0  0  0  0
 17 29  1  0  0  0  0
 18 30  1  0  0  0  0
M  END
> <OPENEYE_ISO_SMILES>
B(c1ccc(cc1)c2ccc(cc2)B(O)O)(O)O

> <OPENEYE_INCHI>
InChI=1S/C12H12B2O4/c15-13(16)11-5-1-9(2-6-11)10-3-7-12(8-4-10)14(17)18/h1-8,15-18H

> <OPENEYE_INCHIKEY>
SLHKDOGTVUCXKX-UHFFFAOYSA-N

> <FORMULA>
C12H12B2O4

$$$$
