BHU
  -OEChem-07282321083D

 23 22  0     1  0  0  0  0  0999 V2000
   -2.3480    0.9340   -0.4000 C   0  0  0  0  0  0  0  0  0  0  0  0
   -1.0350    0.9200    0.2500 N   0  0  0  0  0  0  0  0  0  0  0  0
    0.0060    0.3100   -0.3490 C   0  0  0  0  0  0  0  0  0  0  0  0
   -0.1430   -0.2280   -1.4260 O   0  0  0  0  0  0  0  0  0  0  0  0
    1.3570    0.2950    0.3190 C   0  0  1  0  0  0  0  0  0  0  0  0
    2.3550   -0.4560   -0.5640 C   0  0  0  0  0  0  0  0  0  0  0  0
    3.9410   -0.6020    0.3050 S   0  0  0  0  0  0  0  0  0  0  0  0
    1.8390    1.7330    0.5250 C   0  0  0  0  0  0  0  0  0  0  0  0
   -3.2150   -0.2560    0.1450 B   0  0  0  0  0  0  0  0  0  0  0  0
   -4.6280   -0.1350    0.2070 O   0  0  0  0  0  0  0  0  0  0  0  0
   -2.5850   -1.4530    0.5770 O   0  0  0  0  0  0  0  0  0  0  0  0
   -2.8500    1.8770   -0.1850 H   0  0  0  0  0  0  0  0  0  0  0  0
   -2.2220    0.8270   -1.4770 H   0  0  0  0  0  0  0  0  0  0  0  0
   -0.9160    1.3500    1.1110 H   0  0  0  0  0  0  0  0  0  0  0  0
    1.2790   -0.2040    1.2850 H   0  0  0  0  0  0  0  0  0  0  0  0
    1.9690   -1.4510   -0.7840 H   0  0  0  0  0  0  0  0  0  0  0  0
    2.5000    0.0920   -1.4950 H   0  0  0  0  0  0  0  0  0  0  0  0
    4.7070   -1.2710   -0.5750 H   0  0  0  0  0  0  0  0  0  0  0  0
    2.8160    1.7220    1.0090 H   0  0  0  0  0  0  0  0  0  0  0  0
    1.9170    2.2320   -0.4400 H   0  0  0  0  0  0  0  0  0  0  0  0
    1.1280    2.2680    1.1550 H   0  0  0  0  0  0  0  0  0  0  0  0
   -5.0750   -0.9190    0.5560 H   0  0  0  0  0  0  0  0  0  0  0  0
   -3.2000   -2.1280    0.8960 H   0  0  0  0  0  0  0  0  0  0  0  0
  6  7  1  0  0  0  0
  9 11  1  0  0  0  0
  1  9  1  0  0  0  0
  1  2  1  0  0  0  0
  9 10  1  0  0  0  0
  2  3  1  0  0  0  0
  5  6  1  0  0  0  0
  3  4  2  0  0  0  0
  3  5  1  0  0  0  0
  5  8  1  0  0  0  0
  1 12  1  0  0  0  0
  1 13  1  0  0  0  0
  2 14  1  0  0  0  0
  5 15  1  0  0  0  0
  6 16  1  0  0  0  0
  6 17  1  0  0  0  0
  7 18  1  0  0  0  0
  8 19  1  0  0  0  0
  8 20  1  0  0  0  0
  8 21  1  0  0  0  0
 10 22  1  0  0  0  0
 11 23  1  0  0  0  0
M  END
> <OPENEYE_ISO_SMILES>
B(CNC(=O)[C@H](C)CS)(O)O

> <OPENEYE_INCHI>
InChI=1S/C5H12BNO3S/c1-4(2-11)5(8)7-3-6(9)10/h4,9-11H,2-3H2,1H3,(H,7,8)/t4-/m1/s1

> <OPENEYE_INCHIKEY>
HXSZVYICUWXMQS-SCSAIBSYSA-N

> <FORMULA>
C5H12BNO3S

$$$$
