BIY
  -OEChem-07282321083D

 25 25  0     1  0  0  0  0  0999 V2000
   -3.0650   -0.5080    1.2530 O   0  0  0  0  0  0  0  0  0  0  0  0
   -2.6770    0.0630    0.2510 C   0  0  0  0  0  0  0  0  0  0  0  0
   -1.3110   -0.0050   -0.1180 C   0  0  0  0  0  0  0  0  0  0  0  0
   -0.8970    0.6300   -1.2260 C   0  0  0  0  0  0  0  0  0  0  0  0
    0.3830    0.6240   -1.6920 N   0  0  0  0  0  0  0  0  0  0  0  0
   -0.1870   -0.9150    0.8910 S   0  0  0  0  0  0  0  0  0  0  0  0
    1.2470   -1.1090   -0.2100 C   0  0  0  0  0  0  0  0  0  0  0  0
    0.9340   -2.1440   -1.2930 C   0  0  0  0  0  0  0  0  0  0  0  0
    2.4650   -1.5580    0.5990 C   0  0  0  0  0  0  0  0  0  0  0  0
    1.5270    0.2550   -0.8580 C   0  0  2  0  0  0  0  0  0  0  0  0
    1.7220    1.2910    0.2190 C   0  0  0  0  0  0  0  0  0  0  0  0
    0.8120    2.0250    0.5230 O   0  0  0  0  0  0  0  0  0  0  0  0
    2.9070    1.3970    0.8410 O   0  0  0  0  0  0  0  0  0  0  0  0
   -3.5480    0.7560   -0.5120 O   0  0  0  0  0  0  0  0  0  0  0  0
   -4.4570    0.7410   -0.1830 H   0  0  0  0  0  0  0  0  0  0  0  0
    0.5420    0.8750   -2.6150 H   0  0  0  0  0  0  0  0  0  0  0  0
   -1.6320    1.1850   -1.7890 H   0  0  0  0  0  0  0  0  0  0  0  0
    2.4230    0.1920   -1.4750 H   0  0  0  0  0  0  0  0  0  0  0  0
    0.0750   -1.8120   -1.8750 H   0  0  0  0  0  0  0  0  0  0  0  0
    1.7970   -2.2560   -1.9490 H   0  0  0  0  0  0  0  0  0  0  0  0
    0.7070   -3.1020   -0.8250 H   0  0  0  0  0  0  0  0  0  0  0  0
    2.2500   -2.5120    1.0810 H   0  0  0  0  0  0  0  0  0  0  0  0
    3.3210   -1.6730   -0.0660 H   0  0  0  0  0  0  0  0  0  0  0  0
    2.6930   -0.8100    1.3590 H   0  0  0  0  0  0  0  0  0  0  0  0
    2.9840    2.0760    1.5250 H   0  0  0  0  0  0  0  0  0  0  0  0
  1  2  2  0  0  0  0
  2  3  1  0  0  0  0
  3  4  2  0  0  0  0
  4  5  1  0  0  0  0
  3  6  1  0  0  0  0
  6  7  1  0  0  0  0
  7  8  1  0  0  0  0
  7  9  1  0  0  0  0
  5 10  1  0  0  0  0
  7 10  1  0  0  0  0
 10 11  1  0  0  0  0
 11 12  2  0  0  0  0
 11 13  1  0  0  0  0
  2 14  1  0  0  0  0
 14 15  1  0  0  0  0
  5 16  1  0  0  0  0
  4 17  1  0  0  0  0
 10 18  1  0  0  0  0
  8 19  1  0  0  0  0
  8 20  1  0  0  0  0
  8 21  1  0  0  0  0
  9 22  1  0  0  0  0
  9 23  1  0  0  0  0
  9 24  1  0  0  0  0
 13 25  1  0  0  0  0
M  END
> <OPENEYE_ISO_SMILES>
CC1([C@@H](NC=C(S1)C(=O)O)C(=O)O)C

> <OPENEYE_INCHI>
InChI=1S/C8H11NO4S/c1-8(2)5(7(12)13)9-3-4(14-8)6(10)11/h3,5,9H,1-2H3,(H,10,11)(H,12,13)/t5-/m0/s1

> <OPENEYE_INCHIKEY>
VSZLPINYHQLOJH-YFKPBYRVSA-N

> <FORMULA>
C8H11NO4S

$$$$
