BJH
  -OEChem-07282321083D

 33 33  0     1  0  0  0  0  0999 V2000
    0.7450   -1.2300    0.8930 C   0  0  0  0  0  0  0  0  0  0  0  0
    0.2930   -0.1090    1.8310 C   0  0  2  0  0  0  0  0  0  0  0  0
   -0.0090   -0.6690    3.1510 N   0  0  0  0  0  0  0  0  0  0  0  0
    0.1610    0.0800    4.2570 C   0  0  0  0  0  0  0  0  0  0  0  0
   -0.1500   -0.4960    5.6140 C   0  0  0  0  0  0  0  0  0  0  0  0
    0.5670    1.2190    4.1610 O   0  0  0  0  0  0  0  0  0  0  0  0
   -0.6910    0.0690   -3.7150 C   0  0  0  0  0  0  0  0  0  0  0  0
   -0.4020    0.5850   -4.9250 O   0  0  0  0  0  0  0  0  0  0  0  0
   -1.8180   -0.3150   -3.4720 O   0  0  0  0  0  0  0  0  0  0  0  0
   -0.9910    0.5770    1.2460 B   0  0  0  0  0  0  0  0  0  0  0  0
   -2.1690   -0.1860    1.0320 O   0  0  0  0  0  0  0  0  0  0  0  0
    2.3350   -0.2130   -0.7480 C   0  0  0  0  0  0  0  0  0  0  0  0
    1.0570   -0.6530   -0.4630 C   0  0  0  0  0  0  0  0  0  0  0  0
    2.6320    0.3170   -1.9930 C   0  0  0  0  0  0  0  0  0  0  0  0
    0.0620   -0.5700   -1.4260 C   0  0  0  0  0  0  0  0  0  0  0  0
    1.6550    0.4120   -2.9600 C   0  0  0  0  0  0  0  0  0  0  0  0
    0.3580   -0.0280   -2.6850 C   0  0  0  0  0  0  0  0  0  0  0  0
   -0.9750    1.9610    0.9320 O   0  0  0  0  0  0  0  0  0  0  0  0
   -1.1920   -1.0020   -1.1470 O   0  0  0  0  0  0  0  0  0  0  0  0
    1.6370   -1.7060    1.2990 H   0  0  0  0  0  0  0  0  0  0  0  0
   -0.0500   -1.9680    0.7990 H   0  0  0  0  0  0  0  0  0  0  0  0
    1.0890    0.6290    1.9250 H   0  0  0  0  0  0  0  0  0  0  0  0
   -0.3340   -1.5800    3.2280 H   0  0  0  0  0  0  0  0  0  0  0  0
    0.0480    0.2520    6.3810 H   0  0  0  0  0  0  0  0  0  0  0  0
   -1.2000   -0.7860    5.6530 H   0  0  0  0  0  0  0  0  0  0  0  0
    0.4750   -1.3710    5.7900 H   0  0  0  0  0  0  0  0  0  0  0  0
   -1.0910    0.6490   -5.6010 H   0  0  0  0  0  0  0  0  0  0  0  0
   -2.8320    0.4180    0.6720 H   0  0  0  0  0  0  0  0  0  0  0  0
    3.1070   -0.2840    0.0030 H   0  0  0  0  0  0  0  0  0  0  0  0
    3.6340    0.6580   -2.2060 H   0  0  0  0  0  0  0  0  0  0  0  0
    1.8910    0.8270   -3.9280 H   0  0  0  0  0  0  0  0  0  0  0  0
   -0.0910    2.2880    1.1490 H   0  0  0  0  0  0  0  0  0  0  0  0
   -1.2290   -1.9350   -1.4010 H   0  0  0  0  0  0  0  0  0  0  0  0
  1  2  1  0  0  0  0
  1 13  1  0  0  0  0
  1 20  1  0  0  0  0
  1 21  1  0  0  0  0
  2  3  1  0  0  0  0
  2 10  1  0  0  0  0
  2 22  1  0  0  0  0
  3  4  1  0  0  0  0
  3 23  1  0  0  0  0
  4  5  1  0  0  0  0
  4  6  2  0  0  0  0
  5 24  1  0  0  0  0
  5 25  1  0  0  0  0
  5 26  1  0  0  0  0
  7  8  1  0  0  0  0
  7  9  2  0  0  0  0
  7 17  1  0  0  0  0
  8 27  1  0  0  0  0
 10 11  1  0  0  0  0
 10 18  1  0  0  0  0
 11 28  1  0  0  0  0
 12 13  2  0  0  0  0
 12 14  1  0  0  0  0
 12 29  1  0  0  0  0
 13 15  1  0  0  0  0
 14 16  2  0  0  0  0
 14 30  1  0  0  0  0
 15 17  2  0  0  0  0
 15 19  1  0  0  0  0
 16 17  1  0  0  0  0
 16 31  1  0  0  0  0
 18 32  1  0  0  0  0
 19 33  1  0  0  0  0
M  END
> <OPENEYE_ISO_SMILES>
B([C@H](Cc1cccc(c1O)C(=O)O)NC(=O)C)(O)O

> <OPENEYE_INCHI>
InChI=1S/C11H14BNO6/c1-6(14)13-9(12(18)19)5-7-3-2-4-8(10(7)15)11(16)17/h2-4,9,15,18-19H,5H2,1H3,(H,13,14)(H,16,17)/t9-/m0/s1

> <OPENEYE_INCHIKEY>
MSRKDROGGGBNIX-VIFPVBQESA-N

> <FORMULA>
C11H14BNO6

$$$$
