BJI
  -OEChem-07282321083D

 32 32  0     1  0  0  0  0  0999 V2000
    0.7850   -1.2270    0.8190 C   0  0  0  0  0  0  0  0  0  0  0  0
    0.2510   -0.1390    1.7530 C   0  0  2  0  0  0  0  0  0  0  0  0
    0.0110   -0.7090    3.0810 N   0  0  0  0  0  0  0  0  0  0  0  0
    0.1300    0.0630    4.1780 C   0  0  0  0  0  0  0  0  0  0  0  0
   -0.1160   -0.5230    5.5440 C   0  0  0  0  0  0  0  0  0  0  0  0
    0.4370    1.2310    4.0670 O   0  0  0  0  0  0  0  0  0  0  0  0
   -0.8130   -0.1060   -3.7710 C   0  0  0  0  0  0  0  0  0  0  0  0
   -0.5870    0.4190   -4.9910 O   0  0  0  0  0  0  0  0  0  0  0  0
   -1.8990   -0.5840   -3.5070 O   0  0  0  0  0  0  0  0  0  0  0  0
   -1.0930    0.4300    1.1770 B   0  0  0  0  0  0  0  0  0  0  0  0
   -2.2040   -0.4320    0.9840 O   0  0  0  0  0  0  0  0  0  0  0  0
    2.2680   -0.0950   -0.8500 C   0  0  0  0  0  0  0  0  0  0  0  0
    1.0330   -0.6400   -0.5450 C   0  0  0  0  0  0  0  0  0  0  0  0
    2.5030    0.4450   -2.1010 C   0  0  0  0  0  0  0  0  0  0  0  0
    0.0290   -0.6510   -1.4910 C   0  0  0  0  0  0  0  0  0  0  0  0
    1.5070    0.4440   -3.0550 C   0  0  0  0  0  0  0  0  0  0  0  0
    0.2580   -0.1030   -2.7550 C   0  0  0  0  0  0  0  0  0  0  0  0
   -1.1980    1.8080    0.8490 O   0  0  0  0  0  0  0  0  0  0  0  0
    1.7190   -1.6220    1.2190 H   0  0  0  0  0  0  0  0  0  0  0  0
    0.0540   -2.0310    0.7420 H   0  0  0  0  0  0  0  0  0  0  0  0
    0.9830    0.6650    1.8300 H   0  0  0  0  0  0  0  0  0  0  0  0
   -0.2340   -1.6440    3.1700 H   0  0  0  0  0  0  0  0  0  0  0  0
    0.0260    0.2460    6.3020 H   0  0  0  0  0  0  0  0  0  0  0  0
   -1.1370   -0.9010    5.5980 H   0  0  0  0  0  0  0  0  0  0  0  0
    0.5830   -1.3410    5.7200 H   0  0  0  0  0  0  0  0  0  0  0  0
   -1.2890    0.4160   -5.6560 H   0  0  0  0  0  0  0  0  0  0  0  0
   -2.9200    0.1100    0.6260 H   0  0  0  0  0  0  0  0  0  0  0  0
    3.0520   -0.0930   -0.1070 H   0  0  0  0  0  0  0  0  0  0  0  0
    3.4700    0.8690   -2.3320 H   0  0  0  0  0  0  0  0  0  0  0  0
   -0.9340   -1.0770   -1.2530 H   0  0  0  0  0  0  0  0  0  0  0  0
    1.6920    0.8670   -4.0310 H   0  0  0  0  0  0  0  0  0  0  0  0
   -0.3420    2.2100    1.0540 H   0  0  0  0  0  0  0  0  0  0  0  0
  1  2  1  0  0  0  0
  1 13  1  0  0  0  0
  1 19  1  0  0  0  0
  1 20  1  0  0  0  0
  2  3  1  0  0  0  0
  2 10  1  0  0  0  0
  2 21  1  0  0  0  0
  3  4  1  0  0  0  0
  3 22  1  0  0  0  0
  4  5  1  0  0  0  0
  4  6  2  0  0  0  0
  5 23  1  0  0  0  0
  5 24  1  0  0  0  0
  5 25  1  0  0  0  0
  7  8  1  0  0  0  0
  7  9  2  0  0  0  0
  7 17  1  0  0  0  0
  8 26  1  0  0  0  0
 10 11  1  0  0  0  0
 10 18  1  0  0  0  0
 11 27  1  0  0  0  0
 12 13  2  0  0  0  0
 12 14  1  0  0  0  0
 12 28  1  0  0  0  0
 13 15  1  0  0  0  0
 14 16  2  0  0  0  0
 14 29  1  0  0  0  0
 15 17  2  0  0  0  0
 15 30  1  0  0  0  0
 16 17  1  0  0  0  0
 16 31  1  0  0  0  0
 18 32  1  0  0  0  0
M  END
> <OPENEYE_ISO_SMILES>
B([C@H](Cc1cccc(c1)C(=O)O)NC(=O)C)(O)O

> <OPENEYE_INCHI>
InChI=1S/C11H14BNO5/c1-7(14)13-10(12(17)18)6-8-3-2-4-9(5-8)11(15)16/h2-5,10,17-18H,6H2,1H3,(H,13,14)(H,15,16)/t10-/m0/s1

> <OPENEYE_INCHIKEY>
OBZSRKUYUGJGIM-JTQLQIEISA-N

> <FORMULA>
C11H14BNO5

$$$$
