BJP
  -OEChem-07282321083D

 42 43  0     1  0  0  0  0  0999 V2000
   -0.8110    1.4200   -1.1260 C   0  0  0  0  0  0  0  0  0  0  0  0
   -0.2140    0.4860   -0.0720 C   0  0  1  0  0  0  0  0  0  0  0  0
    0.7390   -0.2370   -5.5700 C   0  0  0  0  0  0  0  0  0  0  0  0
    0.5100   -0.9280   -6.7030 O   0  0  0  0  0  0  0  0  0  0  0  0
    1.8080    0.3120   -5.3980 O   0  0  0  0  0  0  0  0  0  0  0  0
    1.1400   -0.1020   -0.6020 B   0  0  0  0  0  0  0  0  0  0  0  0
    2.2110    0.7680   -0.9350 O   0  0  0  0  0  0  0  0  0  0  0  0
   -2.2800    0.0220   -2.5950 C   0  0  0  0  0  0  0  0  0  0  0  0
   -1.0620    0.6480   -2.3960 C   0  0  0  0  0  0  0  0  0  0  0  0
   -2.5180   -0.6880   -3.7570 C   0  0  0  0  0  0  0  0  0  0  0  0
   -0.0790    0.5720   -3.3610 C   0  0  0  0  0  0  0  0  0  0  0  0
   -1.5420   -0.7760   -4.7280 C   0  0  0  0  0  0  0  0  0  0  0  0
   -0.3110   -0.1460   -4.5350 C   0  0  0  0  0  0  0  0  0  0  0  0
    1.2950   -1.5060   -0.7480 O   0  0  0  0  0  0  0  0  0  0  0  0
    0.0810    0.4600    4.8080 C   0  0  0  0  0  0  0  0  0  0  0  0
    1.1860   -0.2220    5.2790 C   0  0  0  0  0  0  0  0  0  0  0  0
    1.0640   -1.0690    6.3640 C   0  0  0  0  0  0  0  0  0  0  0  0
   -0.1620   -1.2320    6.9790 C   0  0  0  0  0  0  0  0  0  0  0  0
   -1.2670   -0.5480    6.5090 C   0  0  0  0  0  0  0  0  0  0  0  0
   -1.1450    0.3010    5.4260 C   0  0  0  0  0  0  0  0  0  0  0  0
    0.2130    1.3840    3.6240 C   0  0  0  0  0  0  0  0  0  0  0  0
   -0.0360    0.6120    2.3540 C   0  0  0  0  0  0  0  0  0  0  0  0
   -0.2970   -0.5700    2.4050 O   0  0  0  0  0  0  0  0  0  0  0  0
    0.0280    1.2370    1.1620 N   0  0  0  0  0  0  0  0  0  0  0  0
   -1.7520    1.8290   -0.7580 H   0  0  0  0  0  0  0  0  0  0  0  0
   -0.1150    2.2340   -1.3270 H   0  0  0  0  0  0  0  0  0  0  0  0
   -0.9110   -0.3270    0.1290 H   0  0  0  0  0  0  0  0  0  0  0  0
    1.1970   -0.9870   -7.3800 H   0  0  0  0  0  0  0  0  0  0  0  0
    2.9410    0.2100   -1.2360 H   0  0  0  0  0  0  0  0  0  0  0  0
   -3.0480    0.0880   -1.8380 H   0  0  0  0  0  0  0  0  0  0  0  0
   -3.4710   -1.1750   -3.9060 H   0  0  0  0  0  0  0  0  0  0  0  0
    0.8700    1.0620   -3.2050 H   0  0  0  0  0  0  0  0  0  0  0  0
   -1.7290   -1.3310   -5.6350 H   0  0  0  0  0  0  0  0  0  0  0  0
    2.1900   -1.6550   -1.0820 H   0  0  0  0  0  0  0  0  0  0  0  0
    2.1450   -0.0950    4.7980 H   0  0  0  0  0  0  0  0  0  0  0  0
    1.9280   -1.6040    6.7320 H   0  0  0  0  0  0  0  0  0  0  0  0
   -0.2570   -1.8950    7.8270 H   0  0  0  0  0  0  0  0  0  0  0  0
   -2.2260   -0.6760    6.9890 H   0  0  0  0  0  0  0  0  0  0  0  0
   -2.0080    0.8360    5.0590 H   0  0  0  0  0  0  0  0  0  0  0  0
    1.2190    1.8040    3.6020 H   0  0  0  0  0  0  0  0  0  0  0  0
   -0.5140    2.1900    3.7090 H   0  0  0  0  0  0  0  0  0  0  0  0
    0.2370    2.1830    1.1210 H   0  0  0  0  0  0  0  0  0  0  0  0
  1  2  1  0  0  0  0
  1  9  1  0  0  0  0
  1 25  1  0  0  0  0
  1 26  1  0  0  0  0
  2  6  1  0  0  0  0
  2 24  1  0  0  0  0
  2 27  1  0  0  0  0
  3  4  1  0  0  0  0
  3  5  2  0  0  0  0
  3 13  1  0  0  0  0
  4 28  1  0  0  0  0
  6  7  1  0  0  0  0
  6 14  1  0  0  0  0
  7 29  1  0  0  0  0
  8  9  2  0  0  0  0
  8 10  1  0  0  0  0
  8 30  1  0  0  0  0
  9 11  1  0  0  0  0
 10 12  2  0  0  0  0
 10 31  1  0  0  0  0
 11 13  2  0  0  0  0
 11 32  1  0  0  0  0
 12 13  1  0  0  0  0
 12 33  1  0  0  0  0
 14 34  1  0  0  0  0
 15 16  2  0  0  0  0
 15 20  1  0  0  0  0
 15 21  1  0  0  0  0
 16 17  1  0  0  0  0
 16 35  1  0  0  0  0
 17 18  2  0  0  0  0
 17 36  1  0  0  0  0
 18 19  1  0  0  0  0
 18 37  1  0  0  0  0
 19 20  2  0  0  0  0
 19 38  1  0  0  0  0
 20 39  1  0  0  0  0
 21 22  1  0  0  0  0
 21 40  1  0  0  0  0
 21 41  1  0  0  0  0
 22 23  2  0  0  0  0
 22 24  1  0  0  0  0
 24 42  1  0  0  0  0
M  END
> <OPENEYE_ISO_SMILES>
B([C@H](Cc1cccc(c1)C(=O)O)NC(=O)Cc2ccccc2)(O)O

> <OPENEYE_INCHI>
InChI=1S/C17H18BNO5/c20-16(11-12-5-2-1-3-6-12)19-15(18(23)24)10-13-7-4-8-14(9-13)17(21)22/h1-9,15,23-24H,10-11H2,(H,19,20)(H,21,22)/t15-/m0/s1

> <OPENEYE_INCHIKEY>
ZAHVYMBTUDWUAX-HNNXBMFYSA-N

> <FORMULA>
C17H18BNO5

$$$$
