REMARK  10 active torsions:
REMARK  status: ('A' for Active; 'I' for Inactive)
REMARK    1  A    between atoms: C_1  and  C_2 
REMARK    2  A    between atoms: C_1  and  C_9 
REMARK    3  A    between atoms: C_2  and  B_6 
REMARK    4  A    between atoms: C_2  and  N_24 
REMARK    5  A    between atoms: C_3  and  O_4 
REMARK    6  A    between atoms: C_3  and  C_13 
REMARK    7  A    between atoms: B_6  and  O_7 
REMARK    8  A    between atoms: B_6  and  O_14 
REMARK    9  A    between atoms: C_15  and  C_21 
REMARK   10  A    between atoms: C_21  and  C_22 
REMARK       I    between atoms: C_22  and  N_24 
ROOT
HETATM    1  C   UNL     1      -0.214   0.486  -0.072  1.00  0.00     0.114 C 
ENDROOT
BRANCH   1   2
HETATM    2  C   UNL     1      -0.811   1.420  -1.126  1.00  0.00     0.059 C 
BRANCH   2   3
HETATM    3  C   UNL     1      -1.062   0.648  -2.396  1.00  0.00    -0.056 A 
HETATM    4  C   UNL     1      -2.280   0.022  -2.595  1.00  0.00     0.007 A 
HETATM    5  C   UNL     1      -2.518  -0.688  -3.757  1.00  0.00     0.002 A 
HETATM    6  C   UNL     1      -1.542  -0.776  -4.728  1.00  0.00     0.018 A 
HETATM    7  C   UNL     1      -0.311  -0.146  -4.535  1.00  0.00     0.038 A 
HETATM    8  C   UNL     1      -0.079   0.572  -3.361  1.00  0.00     0.025 A 
BRANCH   7   9
HETATM    9  C   UNL     1       0.739  -0.237  -5.570  1.00  0.00     0.176 C 
HETATM   10  O   UNL     1       1.808   0.312  -5.398  1.00  0.00    -0.646 OA
BRANCH   9  11
HETATM   11  O   UNL     1       0.510  -0.928  -6.703  1.00  0.00    -0.773 OA
HETATM   12  H   UNL     1       1.197  -0.987  -7.380  1.00  0.00     0.167 HD
ENDBRANCH   9  11
ENDBRANCH   7   9
ENDBRANCH   2   3
ENDBRANCH   1   2
BRANCH   1  13
HETATM   13  B   UNL     1       1.140  -0.102  -0.602  1.00  0.00     0.515 B 
BRANCH  13  14
HETATM   14  O   UNL     1       2.211   0.768  -0.935  1.00  0.00    -0.436 OA
HETATM   15  H   UNL     1       2.941   0.210  -1.236  1.00  0.00     0.184 HD
ENDBRANCH  13  14
BRANCH  13  16
HETATM   16  O   UNL     1       1.295  -1.506  -0.748  1.00  0.00    -0.436 OA
HETATM   17  H   UNL     1       2.190  -1.655  -1.082  1.00  0.00     0.184 HD
ENDBRANCH  13  16
ENDBRANCH   1  13
BRANCH   1  18
HETATM   18  N   UNL     1       0.028   1.237   1.162  1.00  0.00    -0.359 N 
HETATM   19  C   UNL     1      -0.036   0.612   2.354  1.00  0.00     0.221 C 
HETATM   20  O   UNL     1      -0.297  -0.570   2.405  1.00  0.00    -0.273 OA
HETATM   21  H   UNL     1       0.237   2.183   1.121  1.00  0.00     0.162 HD
BRANCH  19  22
HETATM   22  C   UNL     1       0.213   1.384   3.624  1.00  0.00     0.141 C 
BRANCH  22  23
HETATM   23  C   UNL     1       0.081   0.460   4.808  1.00  0.00    -0.050 A 
HETATM   24  C   UNL     1       1.186  -0.222   5.279  1.00  0.00     0.007 A 
HETATM   25  C   UNL     1       1.064  -1.069   6.364  1.00  0.00     0.001 A 
HETATM   26  C   UNL     1      -0.162  -1.232   6.979  1.00  0.00     0.000 A 
HETATM   27  C   UNL     1      -1.267  -0.548   6.509  1.00  0.00     0.001 A 
HETATM   28  C   UNL     1      -1.145   0.301   5.426  1.00  0.00     0.007 A 
ENDBRANCH  22  23
ENDBRANCH  19  22
ENDBRANCH   1  18
TORSDOF 10
