BO2
  -OEChem-07282321083D

 53 54  0     1  0  0  0  0  0999 V2000
   -3.2320    2.4760   -0.6440 N   0  0  0  0  0  0  0  0  0  0  0  0
   -3.4420    1.4870    0.2200 C   0  0  0  0  0  0  0  0  0  0  0  0
   -4.6850    1.3610    0.8410 C   0  0  0  0  0  0  0  0  0  0  0  0
   -5.6490    2.2210    0.5640 N   0  0  0  0  0  0  0  0  0  0  0  0
   -5.4360    3.1980   -0.3000 C   0  0  0  0  0  0  0  0  0  0  0  0
   -4.2010    3.3260   -0.9190 C   0  0  0  0  0  0  0  0  0  0  0  0
   -2.3580    0.5260    0.5280 C   0  0  0  0  0  0  0  0  0  0  0  0
   -2.5500   -0.3740    1.3220 O   0  0  0  0  0  0  0  0  0  0  0  0
   -1.1580    0.6490   -0.0730 N   0  0  0  0  0  0  0  0  0  0  0  0
   -0.0850   -0.3010    0.2310 C   0  0  1  0  0  0  0  0  0  0  0  0
   -0.2360   -1.5410   -0.6530 C   0  0  0  0  0  0  0  0  0  0  0  0
   -1.5150   -2.2560   -0.3010 C   0  0  0  0  0  0  0  0  0  0  0  0
   -1.5110   -3.2400    0.6700 C   0  0  0  0  0  0  0  0  0  0  0  0
   -2.6840   -3.8940    0.9970 C   0  0  0  0  0  0  0  0  0  0  0  0
   -3.8600   -3.5690    0.3460 C   0  0  0  0  0  0  0  0  0  0  0  0
   -3.8630   -2.5890   -0.6290 C   0  0  0  0  0  0  0  0  0  0  0  0
   -2.6900   -1.9330   -0.9520 C   0  0  0  0  0  0  0  0  0  0  0  0
    1.2500    0.3460   -0.0350 C   0  0  0  0  0  0  0  0  0  0  0  0
    1.3000    1.4880   -0.4390 O   0  0  0  0  0  0  0  0  0  0  0  0
    2.3880   -0.3450    0.1750 N   0  0  0  0  0  0  0  0  0  0  0  0
    3.6850    0.2840   -0.0830 C   0  0  1  0  0  0  0  0  0  0  0  0
    4.6370   -0.0150    1.0760 C   0  0  0  0  0  0  0  0  0  0  0  0
    5.9360    0.7700    0.8850 C   0  0  0  0  0  0  0  0  0  0  0  0
    5.6440    2.2690    0.9770 C   0  0  0  0  0  0  0  0  0  0  0  0
    6.9350    0.3780    1.9760 C   0  0  0  0  0  0  0  0  0  0  0  0
    4.2880   -0.2880   -1.4160 B   0  0  0  0  0  0  0  0  0  0  0  0
    3.4300   -0.6160   -2.4990 O   0  0  0  0  0  0  0  0  0  0  0  0
    5.6900   -0.4770   -1.5370 O   0  0  0  0  0  0  0  0  0  0  0  0
   -4.8580    0.5630    1.5470 H   0  0  0  0  0  0  0  0  0  0  0  0
   -6.2260    3.8990   -0.5250 H   0  0  0  0  0  0  0  0  0  0  0  0
   -4.0320    4.1260   -1.6250 H   0  0  0  0  0  0  0  0  0  0  0  0
   -1.0040    1.3670   -0.7070 H   0  0  0  0  0  0  0  0  0  0  0  0
   -0.1450   -0.5930    1.2790 H   0  0  0  0  0  0  0  0  0  0  0  0
   -0.2660   -1.2390   -1.7000 H   0  0  0  0  0  0  0  0  0  0  0  0
    0.6100   -2.2080   -0.4910 H   0  0  0  0  0  0  0  0  0  0  0  0
   -0.5920   -3.4940    1.1780 H   0  0  0  0  0  0  0  0  0  0  0  0
   -2.6820   -4.6590    1.7580 H   0  0  0  0  0  0  0  0  0  0  0  0
   -4.7770   -4.0820    0.5990 H   0  0  0  0  0  0  0  0  0  0  0  0
   -4.7820   -2.3350   -1.1370 H   0  0  0  0  0  0  0  0  0  0  0  0
   -2.6920   -1.1670   -1.7140 H   0  0  0  0  0  0  0  0  0  0  0  0
    2.3470   -1.2590    0.4980 H   0  0  0  0  0  0  0  0  0  0  0  0
    3.5540    1.3620   -0.1770 H   0  0  0  0  0  0  0  0  0  0  0  0
    4.8580   -1.0830    1.0990 H   0  0  0  0  0  0  0  0  0  0  0  0
    4.1690    0.2790    2.0160 H   0  0  0  0  0  0  0  0  0  0  0  0
    6.3590    0.5410   -0.0930 H   0  0  0  0  0  0  0  0  0  0  0  0
    4.9330    2.5490    0.2000 H   0  0  0  0  0  0  0  0  0  0  0  0
    5.2220    2.4980    1.9550 H   0  0  0  0  0  0  0  0  0  0  0  0
    6.5690    2.8290    0.8410 H   0  0  0  0  0  0  0  0  0  0  0  0
    6.5120    0.6060    2.9550 H   0  0  0  0  0  0  0  0  0  0  0  0
    7.1430   -0.6900    1.9110 H   0  0  0  0  0  0  0  0  0  0  0  0
    7.8600    0.9370    1.8400 H   0  0  0  0  0  0  0  0  0  0  0  0
    2.5290   -0.4140   -2.2130 H   0  0  0  0  0  0  0  0  0  0  0  0
    5.8480   -0.8330   -2.4230 H   0  0  0  0  0  0  0  0  0  0  0  0
  1  2  1  0  0  0  0
  1  6  2  0  0  0  0
  2  3  2  0  0  0  0
  2  7  1  0  0  0  0
  3  4  1  0  0  0  0
  3 29  1  0  0  0  0
  4  5  2  0  0  0  0
  5  6  1  0  0  0  0
  5 30  1  0  0  0  0
  6 31  1  0  0  0  0
  7  8  2  0  0  0  0
  7  9  1  0  0  0  0
  9 10  1  0  0  0  0
  9 32  1  0  0  0  0
 10 11  1  0  0  0  0
 10 18  1  0  0  0  0
 10 33  1  0  0  0  0
 11 12  1  0  0  0  0
 11 34  1  0  0  0  0
 11 35  1  0  0  0  0
 12 13  1  0  0  0  0
 12 17  2  0  0  0  0
 13 14  2  0  0  0  0
 13 36  1  0  0  0  0
 14 15  1  0  0  0  0
 14 37  1  0  0  0  0
 15 16  2  0  0  0  0
 15 38  1  0  0  0  0
 16 17  1  0  0  0  0
 16 39  1  0  0  0  0
 17 40  1  0  0  0  0
 18 19  2  0  0  0  0
 18 20  1  0  0  0  0
 20 21  1  0  0  0  0
 20 41  1  0  0  0  0
 21 22  1  0  0  0  0
 21 26  1  0  0  0  0
 21 42  1  0  0  0  0
 22 23  1  0  0  0  0
 22 43  1  0  0  0  0
 22 44  1  0  0  0  0
 23 24  1  0  0  0  0
 23 25  1  0  0  0  0
 23 45  1  0  0  0  0
 24 46  1  0  0  0  0
 24 47  1  0  0  0  0
 24 48  1  0  0  0  0
 25 49  1  0  0  0  0
 25 50  1  0  0  0  0
 25 51  1  0  0  0  0
 26 27  1  0  0  0  0
 26 28  1  0  0  0  0
 27 52  1  0  0  0  0
 28 53  1  0  0  0  0
M  END
> <OPENEYE_ISO_SMILES>
B([C@H](CC(C)C)NC(=O)[C@H](Cc1ccccc1)NC(=O)c2cnccn2)(O)O

> <OPENEYE_INCHI>
InChI=1S/C19H25BN4O4/c1-13(2)10-17(20(27)28)24-18(25)15(11-14-6-4-3-5-7-14)23-19(26)16-12-21-8-9-22-16/h3-9,12-13,15,17,27-28H,10-11H2,1-2H3,(H,23,26)(H,24,25)/t15-,17-/m0/s1

> <OPENEYE_INCHIKEY>
GXJABQQUPOEUTA-RDJZCZTQSA-N

> <FORMULA>
C19H25BN4O4

$$$$
