REMARK  7 active torsions:
REMARK  status: ('A' for Active; 'I' for Inactive)
REMARK    1  A    between atoms: O_3  and  B_15 
REMARK    2  A    between atoms: O_4  and  B_15 
REMARK    3  A    between atoms: C_10  and  N_12 
REMARK    4  A    between atoms: C_10  and  B_15 
REMARK    5  A    between atoms: C_11  and  C_13 
REMARK    6  A    between atoms: C_11  and  S_14 
REMARK    7  A    between atoms: N_12  and  S_14 
ROOT
HETATM    1  O   UNL     1      -0.146   1.054   1.447  1.00  0.00    -0.206 OA
HETATM    2  O   UNL     1       0.099   1.872  -0.875  1.00  0.00    -0.206 OA
HETATM    3  S   UNL     1      -0.235   0.842   0.045  1.00  0.00     0.230 S 
ENDROOT
BRANCH   3   4
HETATM    4  C   UNL     1       0.581  -0.712  -0.416  1.00  0.00     0.201 C 
BRANCH   4   5
HETATM    5  C   UNL     1       2.068  -0.577  -0.213  1.00  0.00    -0.043 A 
HETATM    6  C   UNL     1       2.632  -0.912   1.005  1.00  0.00     0.008 A 
HETATM    7  C   UNL     1       3.996  -0.790   1.191  1.00  0.00     0.001 A 
HETATM    8  C   UNL     1       4.797  -0.334   0.161  1.00  0.00     0.000 A 
HETATM    9  C   UNL     1       4.233   0.002  -1.056  1.00  0.00     0.001 A 
HETATM   10  C   UNL     1       2.869  -0.121  -1.243  1.00  0.00     0.008 A 
ENDBRANCH   4   5
ENDBRANCH   3   4
BRANCH   3  11
HETATM   11  N   UNL     1      -1.844   0.559  -0.225  1.00  0.00    -0.322 N 
HETATM   12  H   UNL     1      -2.316   1.057  -0.910  1.00  0.00     0.171 HD
BRANCH  11  13
HETATM   13  C   UNL     1      -2.555  -0.444   0.572  1.00  0.00     0.152 C 
BRANCH  13  14
HETATM   14  B   UNL     1      -4.021  -0.599   0.032  1.00  0.00     0.510 B 
BRANCH  14  15
HETATM   15  O   UNL     1      -4.327  -1.619  -0.908  1.00  0.00    -0.436 OA
HETATM   16  H   UNL     1      -3.556  -2.117  -1.213  1.00  0.00     0.184 HD
ENDBRANCH  14  15
BRANCH  14  17
HETATM   17  O   UNL     1      -5.040   0.280   0.482  1.00  0.00    -0.436 OA
HETATM   18  H   UNL     1      -5.909   0.107   0.094  1.00  0.00     0.184 HD
ENDBRANCH  14  17
ENDBRANCH  13  14
ENDBRANCH  11  13
ENDBRANCH   3  11
TORSDOF 7
