BSF
  -OEChem-07282321083D

 27 27  0     0  0  0  0  0  0999 V2000
   -0.1460    1.0540    1.4470 O   0  0  0  0  0  0  0  0  0  0  0  0
    0.0990    1.8720   -0.8750 O   0  0  0  0  0  0  0  0  0  0  0  0
   -4.3270   -1.6190   -0.9080 O   0  0  0  0  0  0  0  0  0  0  0  0
   -5.0400    0.2800    0.4820 O   0  0  0  0  0  0  0  0  0  0  0  0
    4.7970   -0.3340    0.1610 C   0  0  0  0  0  0  0  0  0  0  0  0
    3.9960   -0.7900    1.1910 C   0  0  0  0  0  0  0  0  0  0  0  0
    4.2330    0.0020   -1.0560 C   0  0  0  0  0  0  0  0  0  0  0  0
    2.6320   -0.9120    1.0050 C   0  0  0  0  0  0  0  0  0  0  0  0
    2.8690   -0.1210   -1.2430 C   0  0  0  0  0  0  0  0  0  0  0  0
   -2.5550   -0.4440    0.5720 C   0  0  0  0  0  0  0  0  0  0  0  0
    0.5810   -0.7120   -0.4160 C   0  0  0  0  0  0  0  0  0  0  0  0
   -1.8440    0.5590   -0.2250 N   0  0  0  0  0  0  0  0  0  0  0  0
    2.0680   -0.5770   -0.2130 C   0  0  0  0  0  0  0  0  0  0  0  0
   -0.2350    0.8420    0.0450 S   0  0  0  0  0  0  0  0  0  0  0  0
   -4.0210   -0.5990    0.0320 B   0  0  0  0  0  0  0  0  0  0  0  0
    5.8620   -0.2340    0.3080 H   0  0  0  0  0  0  0  0  0  0  0  0
    4.4370   -1.0520    2.1420 H   0  0  0  0  0  0  0  0  0  0  0  0
    4.8590    0.3580   -1.8610 H   0  0  0  0  0  0  0  0  0  0  0  0
    2.0070   -1.2690    1.8100 H   0  0  0  0  0  0  0  0  0  0  0  0
    2.4290    0.1410   -2.1940 H   0  0  0  0  0  0  0  0  0  0  0  0
   -2.0370   -1.4010    0.4980 H   0  0  0  0  0  0  0  0  0  0  0  0
   -2.5830   -0.1260    1.6140 H   0  0  0  0  0  0  0  0  0  0  0  0
    0.3770   -0.9330   -1.4640 H   0  0  0  0  0  0  0  0  0  0  0  0
    0.2010   -1.5210    0.2070 H   0  0  0  0  0  0  0  0  0  0  0  0
   -2.3160    1.0570   -0.9100 H   0  0  0  0  0  0  0  0  0  0  0  0
   -3.5560   -2.1170   -1.2130 H   0  0  0  0  0  0  0  0  0  0  0  0
   -5.9090    0.1070    0.0940 H   0  0  0  0  0  0  0  0  0  0  0  0
  1 14  2  0  0  0  0
  2 14  2  0  0  0  0
  3 15  1  0  0  0  0
  4 15  1  0  0  0  0
  5  6  2  0  0  0  0
  5  7  1  0  0  0  0
  5 16  1  0  0  0  0
  6  8  1  0  0  0  0
  6 17  1  0  0  0  0
  7  9  2  0  0  0  0
  7 18  1  0  0  0  0
  8 13  2  0  0  0  0
  8 19  1  0  0  0  0
  9 13  1  0  0  0  0
  9 20  1  0  0  0  0
 10 12  1  0  0  0  0
 10 15  1  0  0  0  0
 10 21  1  0  0  0  0
 10 22  1  0  0  0  0
 11 13  1  0  0  0  0
 11 14  1  0  0  0  0
 11 23  1  0  0  0  0
 11 24  1  0  0  0  0
 12 14  1  0  0  0  0
 12 25  1  0  0  0  0
  3 26  1  0  0  0  0
  4 27  1  0  0  0  0
M  END
> <OPENEYE_ISO_SMILES>
B(CNS(=O)(=O)Cc1ccccc1)(O)O

> <OPENEYE_INCHI>
InChI=1S/C8H12BNO4S/c11-9(12)7-10-15(13,14)6-8-4-2-1-3-5-8/h1-5,10-12H,6-7H2

> <OPENEYE_INCHIKEY>
TTWWUAQISBIHPB-UHFFFAOYSA-N

> <FORMULA>
C8H12BNO4S

$$$$
