REMARK  9 active torsions:
REMARK  status: ('A' for Active; 'I' for Inactive)
REMARK    1  A    between atoms: O_1  and  C_14 
REMARK    2  A    between atoms: O_5  and  B_18 
REMARK    3  A    between atoms: O_6  and  B_18 
REMARK    4  A    between atoms: C_11  and  N_13 
REMARK    5  A    between atoms: C_11  and  B_18 
REMARK    6  A    between atoms: C_12  and  C_15 
REMARK    7  A    between atoms: C_12  and  S_17 
REMARK    8  A    between atoms: N_13  and  S_17 
REMARK    9  A    between atoms: C_14  and  C_16 
ROOT
HETATM    1  C   UNL     1      -0.515  -0.225  -0.804  1.00  0.00     0.201 C 
ENDROOT
BRANCH   1   2
HETATM    2  C   UNL     1       0.975  -0.223  -0.581  1.00  0.00    -0.043 A 
HETATM    3  C   UNL     1       1.569  -1.260   0.117  1.00  0.00     0.009 A 
HETATM    4  C   UNL     1       2.932  -1.265   0.325  1.00  0.00     0.019 A 
HETATM    5  C   UNL     1       3.714  -0.220  -0.172  1.00  0.00     0.037 A 
HETATM    6  C   UNL     1       3.109   0.823  -0.876  1.00  0.00     0.019 A 
HETATM    7  C   UNL     1       1.745   0.815  -1.076  1.00  0.00     0.009 A 
BRANCH   5   8
HETATM    8  C   UNL     1       5.175  -0.218   0.047  1.00  0.00     0.176 C 
HETATM    9  O   UNL     1       5.699  -1.127   0.661  1.00  0.00    -0.646 OA
BRANCH   8  10
HETATM   10  O   UNL     1       5.927   0.791  -0.433  1.00  0.00    -0.773 OA
HETATM   11  H   UNL     1       6.878   0.749  -0.265  1.00  0.00     0.167 HD
ENDBRANCH   8  10
ENDBRANCH   5   8
ENDBRANCH   1   2
BRANCH   1  12
HETATM   12  S   UNL     1      -1.333   0.634   0.568  1.00  0.00     0.230 S 
HETATM   13  O   UNL     1      -1.212  -0.116   1.769  1.00  0.00    -0.206 OA
HETATM   14  O   UNL     1      -1.030   2.023   0.538  1.00  0.00    -0.206 OA
BRANCH  12  15
HETATM   15  N   UNL     1      -2.945   0.560   0.200  1.00  0.00    -0.322 N 
HETATM   16  H   UNL     1      -3.438   1.374   0.011  1.00  0.00     0.171 HD
BRANCH  15  17
HETATM   17  C   UNL     1      -3.628  -0.736   0.159  1.00  0.00     0.152 C 
BRANCH  17  18
HETATM   18  B   UNL     1      -5.105  -0.534  -0.333  1.00  0.00     0.510 B 
BRANCH  18  19
HETATM   19  O   UNL     1      -5.425  -0.701  -1.706  1.00  0.00    -0.436 OA
HETATM   20  H   UNL     1      -4.658  -0.863  -2.272  1.00  0.00     0.184 HD
ENDBRANCH  18  19
BRANCH  18  21
HETATM   21  O   UNL     1      -6.121  -0.183   0.595  1.00  0.00    -0.436 OA
HETATM   22  H   UNL     1      -6.997  -0.080   0.199  1.00  0.00     0.184 HD
ENDBRANCH  18  21
ENDBRANCH  17  18
ENDBRANCH  15  17
ENDBRANCH  12  15
ENDBRANCH   1  12
TORSDOF 9
