BSG
  -OEChem-07282321083D

 30 30  0     0  0  0  0  0  0999 V2000
    5.9270    0.7910   -0.4330 O   0  0  0  0  0  0  0  0  0  0  0  0
   -1.2120   -0.1160    1.7690 O   0  0  0  0  0  0  0  0  0  0  0  0
   -1.0300    2.0230    0.5380 O   0  0  0  0  0  0  0  0  0  0  0  0
    5.6990   -1.1270    0.6610 O   0  0  0  0  0  0  0  0  0  0  0  0
   -5.4250   -0.7010   -1.7060 O   0  0  0  0  0  0  0  0  0  0  0  0
   -6.1210   -0.1830    0.5950 O   0  0  0  0  0  0  0  0  0  0  0  0
    1.5690   -1.2600    0.1170 C   0  0  0  0  0  0  0  0  0  0  0  0
    1.7450    0.8150   -1.0760 C   0  0  0  0  0  0  0  0  0  0  0  0
    2.9320   -1.2650    0.3250 C   0  0  0  0  0  0  0  0  0  0  0  0
    3.1090    0.8230   -0.8760 C   0  0  0  0  0  0  0  0  0  0  0  0
   -3.6280   -0.7360    0.1590 C   0  0  0  0  0  0  0  0  0  0  0  0
   -0.5150   -0.2250   -0.8040 C   0  0  0  0  0  0  0  0  0  0  0  0
   -2.9450    0.5600    0.2000 N   0  0  0  0  0  0  0  0  0  0  0  0
    5.1750   -0.2180    0.0470 C   0  0  0  0  0  0  0  0  0  0  0  0
    0.9750   -0.2230   -0.5810 C   0  0  0  0  0  0  0  0  0  0  0  0
    3.7140   -0.2200   -0.1720 C   0  0  0  0  0  0  0  0  0  0  0  0
   -1.3330    0.6340    0.5680 S   0  0  0  0  0  0  0  0  0  0  0  0
   -5.1050   -0.5340   -0.3330 B   0  0  0  0  0  0  0  0  0  0  0  0
    0.9630   -2.0690    0.4970 H   0  0  0  0  0  0  0  0  0  0  0  0
    1.2760    1.6210   -1.6210 H   0  0  0  0  0  0  0  0  0  0  0  0
    3.3940   -2.0740    0.8710 H   0  0  0  0  0  0  0  0  0  0  0  0
    3.7090    1.6340   -1.2630 H   0  0  0  0  0  0  0  0  0  0  0  0
   -3.1050   -1.4010   -0.5270 H   0  0  0  0  0  0  0  0  0  0  0  0
   -3.6350   -1.1750    1.1570 H   0  0  0  0  0  0  0  0  0  0  0  0
   -0.7430    0.2860   -1.7400 H   0  0  0  0  0  0  0  0  0  0  0  0
   -0.8740   -1.2530   -0.8550 H   0  0  0  0  0  0  0  0  0  0  0  0
   -3.4380    1.3740    0.0110 H   0  0  0  0  0  0  0  0  0  0  0  0
    6.8780    0.7490   -0.2650 H   0  0  0  0  0  0  0  0  0  0  0  0
   -4.6580   -0.8630   -2.2720 H   0  0  0  0  0  0  0  0  0  0  0  0
   -6.9970   -0.0800    0.1990 H   0  0  0  0  0  0  0  0  0  0  0  0
  1 14  1  0  0  0  0
  2 17  2  0  0  0  0
  3 17  2  0  0  0  0
  4 14  2  0  0  0  0
  5 18  1  0  0  0  0
  6 18  1  0  0  0  0
  7  9  2  0  0  0  0
  7 15  1  0  0  0  0
  7 19  1  0  0  0  0
  8 10  1  0  0  0  0
  8 15  2  0  0  0  0
  8 20  1  0  0  0  0
  9 16  1  0  0  0  0
  9 21  1  0  0  0  0
 10 16  2  0  0  0  0
 10 22  1  0  0  0  0
 11 13  1  0  0  0  0
 11 18  1  0  0  0  0
 11 23  1  0  0  0  0
 11 24  1  0  0  0  0
 12 15  1  0  0  0  0
 12 17  1  0  0  0  0
 12 25  1  0  0  0  0
 12 26  1  0  0  0  0
 13 17  1  0  0  0  0
 13 27  1  0  0  0  0
 14 16  1  0  0  0  0
  1 28  1  0  0  0  0
  5 29  1  0  0  0  0
  6 30  1  0  0  0  0
M  END
> <OPENEYE_ISO_SMILES>
B(CNS(=O)(=O)Cc1ccc(cc1)C(=O)O)(O)O

> <OPENEYE_INCHI>
InChI=1S/C9H12BNO6S/c12-9(13)8-3-1-7(2-4-8)5-18(16,17)11-6-10(14)15/h1-4,11,14-15H,5-6H2,(H,12,13)

> <OPENEYE_INCHIKEY>
XFGLPAZMEWKDFW-UHFFFAOYSA-N

> <FORMULA>
C9H12BNO6S

$$$$
