REMARK  11 active torsions:
REMARK  status: ('A' for Active; 'I' for Inactive)
REMARK    1  A    between atoms: O_1  and  C_19 
REMARK    2  A    between atoms: O_5  and  B_25 
REMARK    3  A    between atoms: O_6  and  B_25 
REMARK    4  A    between atoms: C_16  and  C_21 
REMARK    5  A    between atoms: C_16  and  C_23 
REMARK    6  A    between atoms: C_17  and  C_20 
REMARK    7  A    between atoms: C_17  and  S_24 
REMARK    8  A    between atoms: N_18  and  C_23 
REMARK    9  A    between atoms: N_18  and  S_24 
REMARK   10  A    between atoms: C_19  and  C_22 
REMARK   11  A    between atoms: C_23  and  B_25 
ROOT
HETATM    1  C   UNL     1       0.333   0.870   0.191  1.00  0.00     0.123 C 
ENDROOT
BRANCH   1   2
HETATM    2  C   UNL     1       1.563   1.780   0.214  1.00  0.00     0.059 C 
BRANCH   2   3
HETATM    3  C   UNL     1       2.716   1.083  -0.463  1.00  0.00    -0.056 A 
HETATM    4  C   UNL     1       2.848   1.145  -1.839  1.00  0.00     0.007 A 
HETATM    5  C   UNL     1       3.903   0.510  -2.468  1.00  0.00     0.002 A 
HETATM    6  C   UNL     1       4.831  -0.191  -1.727  1.00  0.00     0.018 A 
HETATM    7  C   UNL     1       4.704  -0.258  -0.338  1.00  0.00     0.038 A 
HETATM    8  C   UNL     1       3.637   0.386   0.291  1.00  0.00     0.025 A 
BRANCH   7   9
HETATM    9  C   UNL     1       5.694  -1.007   0.462  1.00  0.00     0.176 C 
HETATM   10  O   UNL     1       5.581  -1.064   1.670  1.00  0.00    -0.646 OA
BRANCH   9  11
HETATM   11  O   UNL     1       6.723  -1.628  -0.148  1.00  0.00    -0.773 OA
HETATM   12  H   UNL     1       7.345  -2.106   0.418  1.00  0.00     0.167 HD
ENDBRANCH   9  11
ENDBRANCH   7   9
ENDBRANCH   2   3
ENDBRANCH   1   2
BRANCH   1  13
HETATM   13  N   UNL     1      -0.814   1.586   0.754  1.00  0.00    -0.318 N 
HETATM   14  H   UNL     1      -0.682   2.230   1.467  1.00  0.00     0.171 HD
BRANCH  13  15
HETATM   15  S   UNL     1      -2.338   1.296   0.173  1.00  0.00     0.230 S 
HETATM   16  O   UNL     1      -2.212   1.453  -1.234  1.00  0.00    -0.206 OA
HETATM   17  O   UNL     1      -3.173   2.157   0.934  1.00  0.00    -0.206 OA
BRANCH  15  18
HETATM   18  C   UNL     1      -2.660  -0.439   0.594  1.00  0.00     0.201 C 
BRANCH  18  19
HETATM   19  C   UNL     1      -4.020  -0.836   0.081  1.00  0.00    -0.043 A 
HETATM   20  C   UNL     1      -4.152  -1.361  -1.191  1.00  0.00     0.008 A 
HETATM   21  C   UNL     1      -5.400  -1.727  -1.661  1.00  0.00     0.001 A 
HETATM   22  C   UNL     1      -6.515  -1.567  -0.860  1.00  0.00     0.000 A 
HETATM   23  C   UNL     1      -6.382  -1.041   0.412  1.00  0.00     0.001 A 
HETATM   24  C   UNL     1      -5.135  -0.676   0.882  1.00  0.00     0.008 A 
ENDBRANCH  18  19
ENDBRANCH  15  18
ENDBRANCH  13  15
ENDBRANCH   1  13
BRANCH   1  25
HETATM   25  B   UNL     1       0.617  -0.417   1.044  1.00  0.00     0.515 B 
BRANCH  25  26
HETATM   26  O   UNL     1       0.823  -0.308   2.445  1.00  0.00    -0.436 OA
HETATM   27  H   UNL     1       0.842   0.602   2.770  1.00  0.00     0.184 HD
ENDBRANCH  25  26
BRANCH  25  28
HETATM   28  O   UNL     1       0.668  -1.689   0.415  1.00  0.00    -0.436 OA
HETATM   29  H   UNL     1       0.587  -1.655  -0.548  1.00  0.00     0.184 HD
ENDBRANCH  25  28
ENDBRANCH   1  25
TORSDOF 11
