BSH
  -OEChem-07282321083D

 43 44  0     1  0  0  0  0  0999 V2000
    6.7230   -1.6280   -0.1480 O   0  0  0  0  0  0  0  0  0  0  0  0
   -2.2120    1.4530   -1.2340 O   0  0  0  0  0  0  0  0  0  0  0  0
   -3.1730    2.1570    0.9340 O   0  0  0  0  0  0  0  0  0  0  0  0
    5.5810   -1.0640    1.6700 O   0  0  0  0  0  0  0  0  0  0  0  0
    0.8230   -0.3080    2.4450 O   0  0  0  0  0  0  0  0  0  0  0  0
    0.6680   -1.6890    0.4150 O   0  0  0  0  0  0  0  0  0  0  0  0
   -6.5150   -1.5670   -0.8600 C   0  0  0  0  0  0  0  0  0  0  0  0
   -5.4000   -1.7270   -1.6610 C   0  0  0  0  0  0  0  0  0  0  0  0
   -6.3820   -1.0410    0.4120 C   0  0  0  0  0  0  0  0  0  0  0  0
    3.9030    0.5100   -2.4680 C   0  0  0  0  0  0  0  0  0  0  0  0
   -4.1520   -1.3610   -1.1910 C   0  0  0  0  0  0  0  0  0  0  0  0
   -5.1350   -0.6760    0.8820 C   0  0  0  0  0  0  0  0  0  0  0  0
    2.8480    1.1450   -1.8390 C   0  0  0  0  0  0  0  0  0  0  0  0
    4.8310   -0.1910   -1.7270 C   0  0  0  0  0  0  0  0  0  0  0  0
    3.6370    0.3860    0.2910 C   0  0  0  0  0  0  0  0  0  0  0  0
    1.5630    1.7800    0.2140 C   0  0  0  0  0  0  0  0  0  0  0  0
   -2.6600   -0.4390    0.5940 C   0  0  0  0  0  0  0  0  0  0  0  0
   -0.8140    1.5860    0.7540 N   0  0  0  0  0  0  0  0  0  0  0  0
    5.6940   -1.0070    0.4620 C   0  0  0  0  0  0  0  0  0  0  0  0
   -4.0200   -0.8360    0.0810 C   0  0  0  0  0  0  0  0  0  0  0  0
    2.7160    1.0830   -0.4630 C   0  0  0  0  0  0  0  0  0  0  0  0
    4.7040   -0.2580   -0.3380 C   0  0  0  0  0  0  0  0  0  0  0  0
    0.3330    0.8700    0.1910 C   0  0  2  0  0  0  0  0  0  0  0  0
   -2.3380    1.2960    0.1730 S   0  0  0  0  0  0  0  0  0  0  0  0
    0.6170   -0.4170    1.0440 B   0  0  0  0  0  0  0  0  0  0  0  0
   -7.4900   -1.8490   -1.2290 H   0  0  0  0  0  0  0  0  0  0  0  0
   -5.5030   -2.1380   -2.6540 H   0  0  0  0  0  0  0  0  0  0  0  0
   -7.2530   -0.9160    1.0380 H   0  0  0  0  0  0  0  0  0  0  0  0
    3.9970    0.5580   -3.5430 H   0  0  0  0  0  0  0  0  0  0  0  0
   -3.2810   -1.4860   -1.8170 H   0  0  0  0  0  0  0  0  0  0  0  0
   -5.0310   -0.2660    1.8760 H   0  0  0  0  0  0  0  0  0  0  0  0
    2.1240    1.6930   -2.4240 H   0  0  0  0  0  0  0  0  0  0  0  0
    5.6540   -0.6880   -2.2200 H   0  0  0  0  0  0  0  0  0  0  0  0
    3.5330    0.3390    1.3650 H   0  0  0  0  0  0  0  0  0  0  0  0
    1.8300    2.0030    1.2470 H   0  0  0  0  0  0  0  0  0  0  0  0
    1.3400    2.7070   -0.3120 H   0  0  0  0  0  0  0  0  0  0  0  0
   -2.6300   -0.5610    1.6770 H   0  0  0  0  0  0  0  0  0  0  0  0
   -1.8990   -1.0710    0.1360 H   0  0  0  0  0  0  0  0  0  0  0  0
   -0.6820    2.2300    1.4670 H   0  0  0  0  0  0  0  0  0  0  0  0
    0.1130    0.5830   -0.8380 H   0  0  0  0  0  0  0  0  0  0  0  0
    7.3450   -2.1060    0.4180 H   0  0  0  0  0  0  0  0  0  0  0  0
    0.8420    0.6020    2.7700 H   0  0  0  0  0  0  0  0  0  0  0  0
    0.5870   -1.6550   -0.5480 H   0  0  0  0  0  0  0  0  0  0  0  0
  1 19  1  0  0  0  0
  2 24  2  0  0  0  0
  3 24  2  0  0  0  0
  4 19  2  0  0  0  0
  5 25  1  0  0  0  0
  6 25  1  0  0  0  0
  7  8  2  0  0  0  0
  7  9  1  0  0  0  0
  7 26  1  0  0  0  0
  8 11  1  0  0  0  0
  8 27  1  0  0  0  0
  9 12  2  0  0  0  0
  9 28  1  0  0  0  0
 10 13  2  0  0  0  0
 10 14  1  0  0  0  0
 10 29  1  0  0  0  0
 11 20  2  0  0  0  0
 11 30  1  0  0  0  0
 12 20  1  0  0  0  0
 12 31  1  0  0  0  0
 13 21  1  0  0  0  0
 13 32  1  0  0  0  0
 14 22  2  0  0  0  0
 14 33  1  0  0  0  0
 15 21  2  0  0  0  0
 15 22  1  0  0  0  0
 15 34  1  0  0  0  0
 16 21  1  0  0  0  0
 16 23  1  0  0  0  0
 16 35  1  0  0  0  0
 16 36  1  0  0  0  0
 17 20  1  0  0  0  0
 17 24  1  0  0  0  0
 17 37  1  0  0  0  0
 17 38  1  0  0  0  0
 18 23  1  0  0  0  0
 18 24  1  0  0  0  0
 18 39  1  0  0  0  0
 19 22  1  0  0  0  0
 23 25  1  0  0  0  0
 23 40  1  0  0  0  0
  1 41  1  0  0  0  0
  5 42  1  0  0  0  0
  6 43  1  0  0  0  0
M  END
> <OPENEYE_ISO_SMILES>
B([C@H](Cc1cccc(c1)C(=O)O)NS(=O)(=O)Cc2ccccc2)(O)O

> <OPENEYE_INCHI>
InChI=1S/C16H18BNO6S/c19-16(20)14-8-4-7-13(9-14)10-15(17(21)22)18-25(23,24)11-12-5-2-1-3-6-12/h1-9,15,18,21-22H,10-11H2,(H,19,20)/t15-/m0/s1

> <OPENEYE_INCHIKEY>
LCKOZWBVAVBOPR-HNNXBMFYSA-N

> <FORMULA>
C16H18BNO6S

$$$$
