BX6
  -OEChem-07282321083D

 36 36  0     1  0  0  0  0  0999 V2000
   -1.9180   -1.6340    1.2630 C   0  0  0  0  0  0  0  0  0  0  0  0
   -2.4620   -0.8080    0.2960 C   0  0  0  0  0  0  0  0  0  0  0  0
   -2.9930   -1.3530   -0.8590 C   0  0  0  0  0  0  0  0  0  0  0  0
   -2.9800   -2.7220   -1.0470 C   0  0  0  0  0  0  0  0  0  0  0  0
   -2.4360   -3.5470   -0.0800 C   0  0  0  0  0  0  0  0  0  0  0  0
   -1.9000   -3.0030    1.0720 C   0  0  0  0  0  0  0  0  0  0  0  0
   -2.4770    0.6840    0.5020 C   0  0  0  0  0  0  0  0  0  0  0  0
   -1.2660    1.3070   -0.1960 C   0  0  2  0  0  0  0  0  0  0  0  0
   -0.0360    0.8200    0.4330 N   0  0  0  0  0  0  0  0  0  0  0  0
    0.9980    0.4170   -0.3310 C   0  0  0  0  0  0  0  0  0  0  0  0
    0.9100    0.4570   -1.5400 O   0  0  0  0  0  0  0  0  0  0  0  0
    2.2630   -0.0840    0.3160 C   0  0  1  0  0  0  0  0  0  0  0  0
    3.2700   -0.4750   -0.7670 C   0  0  0  0  0  0  0  0  0  0  0  0
    4.7340   -1.2150    0.0060 S   0  0  0  0  0  0  0  0  0  0  0  0
    2.8590    1.0200    1.1920 C   0  0  0  0  0  0  0  0  0  0  0  0
   -1.3360    2.8710   -0.0690 B   0  0  0  0  0  0  0  0  0  0  0  0
   -0.1420    3.6250    0.0800 O   0  0  0  0  0  0  0  0  0  0  0  0
   -2.5930    3.5300   -0.1030 O   0  0  0  0  0  0  0  0  0  0  0  0
   -1.5040   -1.2090    2.1650 H   0  0  0  0  0  0  0  0  0  0  0  0
   -3.4180   -0.7080   -1.6130 H   0  0  0  0  0  0  0  0  0  0  0  0
   -3.3950   -3.1470   -1.9490 H   0  0  0  0  0  0  0  0  0  0  0  0
   -2.4260   -4.6170   -0.2270 H   0  0  0  0  0  0  0  0  0  0  0  0
   -1.4750   -3.6480    1.8270 H   0  0  0  0  0  0  0  0  0  0  0  0
   -3.3930    1.1000    0.0810 H   0  0  0  0  0  0  0  0  0  0  0  0
   -2.4350    0.9050    1.5680 H   0  0  0  0  0  0  0  0  0  0  0  0
   -1.2710    1.0280   -1.2500 H   0  0  0  0  0  0  0  0  0  0  0  0
    0.0340    0.7880    1.4000 H   0  0  0  0  0  0  0  0  0  0  0  0
    2.0360   -0.9540    0.9320 H   0  0  0  0  0  0  0  0  0  0  0  0
    2.8130   -1.1970   -1.4450 H   0  0  0  0  0  0  0  0  0  0  0  0
    3.5640    0.4130   -1.3270 H   0  0  0  0  0  0  0  0  0  0  0  0
    5.5190   -1.5050   -1.0470 H   0  0  0  0  0  0  0  0  0  0  0  0
    2.1420    1.2990    1.9640 H   0  0  0  0  0  0  0  0  0  0  0  0
    3.7750    0.6580    1.6600 H   0  0  0  0  0  0  0  0  0  0  0  0
    3.0860    1.8900    0.5760 H   0  0  0  0  0  0  0  0  0  0  0  0
    0.6630    3.0890    0.0930 H   0  0  0  0  0  0  0  0  0  0  0  0
   -3.3400    2.9440   -0.2830 H   0  0  0  0  0  0  0  0  0  0  0  0
  5  6  2  0  0  0  0
  1  6  1  0  0  0  0
  4  5  1  0  0  0  0
  1  2  2  0  0  0  0
  3  4  2  0  0  0  0
  2  3  1  0  0  0  0
  2  7  1  0  0  0  0
  7  8  1  0  0  0  0
  8 16  1  0  0  0  0
  8  9  1  0  0  0  0
 16 18  1  0  0  0  0
 16 17  1  0  0  0  0
  9 10  1  0  0  0  0
 13 14  1  0  0  0  0
 12 13  1  0  0  0  0
 10 11  2  0  0  0  0
 10 12  1  0  0  0  0
 12 15  1  0  0  0  0
  1 19  1  0  0  0  0
  3 20  1  0  0  0  0
  4 21  1  0  0  0  0
  5 22  1  0  0  0  0
  6 23  1  0  0  0  0
  7 24  1  0  0  0  0
  7 25  1  0  0  0  0
  8 26  1  0  0  0  0
  9 27  1  0  0  0  0
 12 28  1  0  0  0  0
 13 29  1  0  0  0  0
 13 30  1  0  0  0  0
 14 31  1  0  0  0  0
 15 32  1  0  0  0  0
 15 33  1  0  0  0  0
 15 34  1  0  0  0  0
 17 35  1  0  0  0  0
 18 36  1  0  0  0  0
M  END
> <OPENEYE_ISO_SMILES>
B([C@H](Cc1ccccc1)NC(=O)[C@H](C)CS)(O)O

> <OPENEYE_INCHI>
InChI=1S/C12H18BNO3S/c1-9(8-18)12(15)14-11(13(16)17)7-10-5-3-2-4-6-10/h2-6,9,11,16-18H,7-8H2,1H3,(H,14,15)/t9-,11+/m1/s1

> <OPENEYE_INCHIKEY>
FYDJFEUAPCQUQY-KOLCDFICSA-N

> <FORMULA>
C12H18BNO3S

$$$$
