REMARK  9 active torsions:
REMARK  status: ('A' for Active; 'I' for Inactive)
REMARK    1  A    between atoms: C_2  and  C_7 
REMARK    2  A    between atoms: C_7  and  C_8 
REMARK    3  A    between atoms: C_8  and  B_16 
REMARK    4  A    between atoms: C_8  and  N_9 
REMARK       I    between atoms: N_9  and  C_10 
REMARK    5  A    between atoms: C_10  and  C_12 
REMARK    6  A    between atoms: C_12  and  C_13 
REMARK    7  A    between atoms: C_13  and  S_14 
REMARK    8  A    between atoms: B_16  and  O_18 
REMARK    9  A    between atoms: B_16  and  O_17 
ROOT
HETATM    1  C   UNL     1      -1.266   1.307  -0.196  1.00  0.00     0.114 C 
ENDROOT
BRANCH   1   2
HETATM    2  C   UNL     1      -2.477   0.684   0.502  1.00  0.00     0.059 C 
BRANCH   2   3
HETATM    3  C   UNL     1      -2.462  -0.808   0.296  1.00  0.00    -0.057 A 
HETATM    4  C   UNL     1      -1.918  -1.634   1.263  1.00  0.00     0.007 A 
HETATM    5  C   UNL     1      -1.900  -3.003   1.072  1.00  0.00     0.001 A 
HETATM    6  C   UNL     1      -2.436  -3.547  -0.080  1.00  0.00     0.000 A 
HETATM    7  C   UNL     1      -2.980  -2.722  -1.047  1.00  0.00     0.001 A 
HETATM    8  C   UNL     1      -2.993  -1.353  -0.859  1.00  0.00     0.007 A 
ENDBRANCH   2   3
ENDBRANCH   1   2
BRANCH   1   9
HETATM    9  B   UNL     1      -1.336   2.871  -0.069  1.00  0.00     0.515 B 
BRANCH   9  10
HETATM   10  O   UNL     1      -2.593   3.530  -0.103  1.00  0.00    -0.436 OA
HETATM   11  H   UNL     1      -3.340   2.944  -0.283  1.00  0.00     0.184 HD
ENDBRANCH   9  10
BRANCH   9  12
HETATM   12  O   UNL     1      -0.142   3.625   0.080  1.00  0.00    -0.436 OA
HETATM   13  H   UNL     1       0.663   3.089   0.093  1.00  0.00     0.184 HD
ENDBRANCH   9  12
ENDBRANCH   1   9
BRANCH   1  14
HETATM   14  N   UNL     1      -0.036   0.820   0.433  1.00  0.00    -0.359 N 
HETATM   15  C   UNL     1       0.998   0.417  -0.331  1.00  0.00     0.222 C 
HETATM   16  O   UNL     1       0.910   0.457  -1.540  1.00  0.00    -0.273 OA
HETATM   17  H   UNL     1       0.034   0.788   1.400  1.00  0.00     0.162 HD
BRANCH  15  18
HETATM   18  C   UNL     1       2.263  -0.084   0.316  1.00  0.00     0.083 C 
HETATM   19  C   UNL     1       2.859   1.020   1.192  1.00  0.00     0.020 C 
BRANCH  18  20
HETATM   20  C   UNL     1       3.270  -0.475  -0.767  1.00  0.00     0.084 C 
BRANCH  20  21
HETATM   21  S   UNL     1       4.734  -1.215   0.006  1.00  0.00    -0.181 SA
HETATM   22  H   UNL     1       5.519  -1.505  -1.047  1.00  0.00     0.101 HD
ENDBRANCH  20  21
ENDBRANCH  18  20
ENDBRANCH  15  18
ENDBRANCH   1  14
TORSDOF 9
