BX9
  -OEChem-07282321083D

 33 33  0     1  0  0  0  0  0999 V2000
   -0.6400   -0.8770    0.4990 C   0  0  2  0  0  0  0  0  0  0  0  0
    0.4950   -0.2650   -0.1950 N   0  0  0  0  0  0  0  0  0  0  0  0
    1.6860   -0.1540    0.4270 C   0  0  0  0  0  0  0  0  0  0  0  0
    1.8170   -0.5610    1.5620 O   0  0  0  0  0  0  0  0  0  0  0  0
    2.8540    0.4750   -0.2870 C   0  0  1  0  0  0  0  0  0  0  0  0
    4.0750    0.4770    0.6350 C   0  0  0  0  0  0  0  0  0  0  0  0
    5.4370    1.3660   -0.1670 S   0  0  0  0  0  0  0  0  0  0  0  0
    3.1710   -0.3260   -1.5510 C   0  0  0  0  0  0  0  0  0  0  0  0
   -0.8820   -2.3220   -0.0660 B   0  0  0  0  0  0  0  0  0  0  0  0
   -0.5570   -2.6200   -1.4150 O   0  0  0  0  0  0  0  0  0  0  0  0
   -1.4270   -3.3300    0.7730 O   0  0  0  0  0  0  0  0  0  0  0  0
   -1.8730   -0.0390    0.2810 C   0  0  0  0  0  0  0  0  0  0  0  0
   -3.0720   -0.6460   -0.0440 C   0  0  0  0  0  0  0  0  0  0  0  0
   -4.2040    0.1210   -0.2440 C   0  0  0  0  0  0  0  0  0  0  0  0
   -4.1370    1.4980   -0.1190 C   0  0  0  0  0  0  0  0  0  0  0  0
   -2.9360    2.1050    0.2070 C   0  0  0  0  0  0  0  0  0  0  0  0
   -1.8070    1.3350    0.4110 C   0  0  0  0  0  0  0  0  0  0  0  0
   -5.2420    2.2500   -0.3200 F   0  0  0  0  0  0  0  0  0  0  0  0
   -0.4250   -0.9360    1.5660 H   0  0  0  0  0  0  0  0  0  0  0  0
    0.3910    0.0600   -1.1030 H   0  0  0  0  0  0  0  0  0  0  0  0
    2.6030    1.5000   -0.5600 H   0  0  0  0  0  0  0  0  0  0  0  0
    3.8210    0.9720    1.5730 H   0  0  0  0  0  0  0  0  0  0  0  0
    4.3790   -0.5500    0.8370 H   0  0  0  0  0  0  0  0  0  0  0  0
    6.4250    1.2890    0.7420 H   0  0  0  0  0  0  0  0  0  0  0  0
    4.0160    0.1290   -2.0680 H   0  0  0  0  0  0  0  0  0  0  0  0
    3.4220   -1.3510   -1.2780 H   0  0  0  0  0  0  0  0  0  0  0  0
    2.3010   -0.3280   -2.2080 H   0  0  0  0  0  0  0  0  0  0  0  0
   -0.1920   -1.8710   -1.9070 H   0  0  0  0  0  0  0  0  0  0  0  0
   -3.1240   -1.7200   -0.1420 H   0  0  0  0  0  0  0  0  0  0  0  0
   -5.1400   -0.3530   -0.4990 H   0  0  0  0  0  0  0  0  0  0  0  0
   -2.8820    3.1800    0.3050 H   0  0  0  0  0  0  0  0  0  0  0  0
   -0.8690    1.8090    0.6650 H   0  0  0  0  0  0  0  0  0  0  0  0
   -1.6160   -3.0330    1.6730 H   0  0  0  0  0  0  0  0  0  0  0  0
 15 18  1  0  0  0  0
 15 16  2  0  0  0  0
 14 15  1  0  0  0  0
 16 17  1  0  0  0  0
 13 14  2  0  0  0  0
 12 17  2  0  0  0  0
 12 13  1  0  0  0  0
  1 12  1  0  0  0  0
  9 10  1  0  0  0  0
  6  7  1  0  0  0  0
  1  9  1  0  0  0  0
  1  2  1  0  0  0  0
  9 11  1  0  0  0  0
  2  3  1  0  0  0  0
  5  6  1  0  0  0  0
  3  4  2  0  0  0  0
  3  5  1  0  0  0  0
  5  8  1  0  0  0  0
  1 19  1  0  0  0  0
  2 20  1  0  0  0  0
  5 21  1  0  0  0  0
  6 22  1  0  0  0  0
  6 23  1  0  0  0  0
  7 24  1  0  0  0  0
  8 25  1  0  0  0  0
  8 26  1  0  0  0  0
  8 27  1  0  0  0  0
 10 28  1  0  0  0  0
 13 29  1  0  0  0  0
 14 30  1  0  0  0  0
 16 31  1  0  0  0  0
 17 32  1  0  0  0  0
 11 33  1  0  0  0  0
M  END
> <OPENEYE_ISO_SMILES>
B([C@H](c1ccc(cc1)F)NC(=O)[C@H](C)CS)(O)O

> <OPENEYE_INCHI>
InChI=1S/C11H15BFNO3S/c1-7(6-18)11(15)14-10(12(16)17)8-2-4-9(13)5-3-8/h2-5,7,10,16-18H,6H2,1H3,(H,14,15)/t7-,10+/m1/s1

> <OPENEYE_INCHIKEY>
CDDJMEDWZMPIRW-XCBNKYQSSA-N

> <FORMULA>
C11H15BFNO3S

$$$$
