BXU
  -OEChem-07282321083D

 33 33  0     1  0  0  0  0  0999 V2000
    3.1280   -0.4730    1.1480 C   0  0  0  0  0  0  0  0  0  0  0  0
    3.1500    1.3980   -0.8900 C   0  0  0  0  0  0  0  0  0  0  0  0
    1.9820    0.7280   -0.5780 C   0  0  0  0  0  0  0  0  0  0  0  0
    1.9690   -0.2020    0.4440 C   0  0  0  0  0  0  0  0  0  0  0  0
    4.2990    0.1910    0.8340 C   0  0  0  0  0  0  0  0  0  0  0  0
    4.3110    1.1270   -0.1850 C   0  0  0  0  0  0  0  0  0  0  0  0
   -1.7330   -1.3180   -0.3190 O   0  0  0  0  0  0  0  0  0  0  0  0
    0.6920   -0.9220    0.7910 C   0  0  1  0  0  0  0  0  0  0  0  0
   -0.4130    0.0390    0.8380 N   0  0  0  0  0  0  0  0  0  0  0  0
   -1.5890   -0.2570    0.2500 C   0  0  0  0  0  0  0  0  0  0  0  0
   -2.7250    0.7320    0.2990 C   0  0  1  0  0  0  0  0  0  0  0  0
   -3.9350    0.1550   -0.4380 C   0  0  0  0  0  0  0  0  0  0  0  0
   -5.2520    1.4010   -0.5080 S   0  0  0  0  0  0  0  0  0  0  0  0
   -3.1000    1.0060    1.7570 C   0  0  0  0  0  0  0  0  0  0  0  0
    0.3920   -2.0110   -0.3000 B   0  0  0  0  0  0  0  0  0  0  0  0
    0.8210   -1.8120   -1.6390 O   0  0  0  0  0  0  0  0  0  0  0  0
   -0.3090   -3.1950    0.0520 O   0  0  0  0  0  0  0  0  0  0  0  0
    5.4550    1.7770   -0.4930 F   0  0  0  0  0  0  0  0  0  0  0  0
    3.1170   -1.2010    1.9460 H   0  0  0  0  0  0  0  0  0  0  0  0
    3.1600    2.1250   -1.6880 H   0  0  0  0  0  0  0  0  0  0  0  0
    1.0780    0.9330   -1.1340 H   0  0  0  0  0  0  0  0  0  0  0  0
    5.2040   -0.0210    1.3840 H   0  0  0  0  0  0  0  0  0  0  0  0
    0.7980   -1.4020    1.7640 H   0  0  0  0  0  0  0  0  0  0  0  0
   -0.2980    0.8880    1.2930 H   0  0  0  0  0  0  0  0  0  0  0  0
   -2.4180    1.6620   -0.1790 H   0  0  0  0  0  0  0  0  0  0  0  0
   -3.6450   -0.1230   -1.4510 H   0  0  0  0  0  0  0  0  0  0  0  0
   -4.2970   -0.7270    0.0910 H   0  0  0  0  0  0  0  0  0  0  0  0
   -6.2340    0.7660   -1.1710 H   0  0  0  0  0  0  0  0  0  0  0  0
   -2.2380    1.4170    2.2820 H   0  0  0  0  0  0  0  0  0  0  0  0
   -3.9220    1.7210    1.7920 H   0  0  0  0  0  0  0  0  0  0  0  0
   -3.4070    0.0760    2.2350 H   0  0  0  0  0  0  0  0  0  0  0  0
   -0.5600   -3.2400    0.9850 H   0  0  0  0  0  0  0  0  0  0  0  0
    1.2890   -0.9780   -1.7820 H   0  0  0  0  0  0  0  0  0  0  0  0
  6 18  1  0  0  0  0
  5  6  2  0  0  0  0
  2  6  1  0  0  0  0
  1  5  1  0  0  0  0
  2  3  2  0  0  0  0
  1  4  2  0  0  0  0
  3  4  1  0  0  0  0
  4  8  1  0  0  0  0
 12 13  1  0  0  0  0
 15 16  1  0  0  0  0
 11 12  1  0  0  0  0
  8 15  1  0  0  0  0
  8  9  1  0  0  0  0
 15 17  1  0  0  0  0
  9 10  1  0  0  0  0
 10 11  1  0  0  0  0
 11 14  1  0  0  0  0
  7 10  2  0  0  0  0
  1 19  1  0  0  0  0
  2 20  1  0  0  0  0
  3 21  1  0  0  0  0
  5 22  1  0  0  0  0
  8 23  1  0  0  0  0
  9 24  1  0  0  0  0
 11 25  1  0  0  0  0
 12 26  1  0  0  0  0
 12 27  1  0  0  0  0
 13 28  1  0  0  0  0
 14 29  1  0  0  0  0
 14 30  1  0  0  0  0
 14 31  1  0  0  0  0
 17 32  1  0  0  0  0
 16 33  1  0  0  0  0
M  END
> <OPENEYE_ISO_SMILES>
B([C@@H](c1ccc(cc1)F)NC(=O)[C@H](C)CS)(O)O

> <OPENEYE_INCHI>
InChI=1S/C11H15BFNO3S/c1-7(6-18)11(15)14-10(12(16)17)8-2-4-9(13)5-3-8/h2-5,7,10,16-18H,6H2,1H3,(H,14,15)/t7-,10-/m1/s1

> <OPENEYE_INCHIKEY>
CDDJMEDWZMPIRW-GMSGAONNSA-N

> <FORMULA>
C11H15BFNO3S

$$$$
