BZB
  -OEChem-07282321083D

 19 20  0     0  0  0  0  0  0999 V2000
   -0.2500    0.0000    2.8430 B   0  0  0  0  0  0  0  0  0  0  0  0
    0.8990    0.0000    3.6760 O   0  0  0  0  0  0  0  0  0  0  0  0
   -1.5460    0.0000    3.4240 O   0  0  0  0  0  0  0  0  0  0  0  0
   -0.0890    0.0000    1.2820 C   0  0  0  0  0  0  0  0  0  0  0  0
   -1.0590   -0.0050    0.3310 C   0  0  0  0  0  0  0  0  0  0  0  0
    0.6810    0.0000   -1.2980 C   0  0  0  0  0  0  0  0  0  0  0  0
   -0.7090    0.0000   -1.0300 C   0  0  0  0  0  0  0  0  0  0  0  0
    1.1810   -0.0000   -2.5820 C   0  0  0  0  0  0  0  0  0  0  0  0
    1.4120   -0.0000    0.3190 S   0  0  0  0  0  0  0  0  0  0  0  0
   -1.5680    0.0010   -2.1590 C   0  0  0  0  0  0  0  0  0  0  0  0
    0.3090    0.0000   -3.6520 C   0  0  0  0  0  0  0  0  0  0  0  0
   -1.0600    0.0000   -3.4180 C   0  0  0  0  0  0  0  0  0  0  0  0
    0.5830    0.0000    4.5900 H   0  0  0  0  0  0  0  0  0  0  0  0
   -1.4230    0.0000    4.3830 H   0  0  0  0  0  0  0  0  0  0  0  0
   -2.1000   -0.0090    0.6210 H   0  0  0  0  0  0  0  0  0  0  0  0
    2.2480   -0.0000   -2.7500 H   0  0  0  0  0  0  0  0  0  0  0  0
   -2.6380    0.0020   -2.0150 H   0  0  0  0  0  0  0  0  0  0  0  0
    0.6880    0.0000   -4.6630 H   0  0  0  0  0  0  0  0  0  0  0  0
   -1.7380    0.0010   -4.2590 H   0  0  0  0  0  0  0  0  0  0  0  0
  1  2  1  0  0  0  0
  1  3  1  0  0  0  0
  1  4  1  0  0  0  0
  2 13  1  0  0  0  0
  3 14  1  0  0  0  0
  4  5  2  0  0  0  0
  4  9  1  0  0  0  0
  5  7  1  0  0  0  0
  5 15  1  0  0  0  0
  6  7  2  0  0  0  0
  6  8  1  0  0  0  0
  6  9  1  0  0  0  0
  7 10  1  0  0  0  0
  8 11  2  0  0  0  0
  8 16  1  0  0  0  0
 10 12  2  0  0  0  0
 10 17  1  0  0  0  0
 11 12  1  0  0  0  0
 11 18  1  0  0  0  0
 12 19  1  0  0  0  0
M  END
> <OPENEYE_ISO_SMILES>
B(c1cc2ccccc2s1)(O)O

> <OPENEYE_INCHI>
InChI=1S/C8H7BO2S/c10-9(11)8-5-6-3-1-2-4-7(6)12-8/h1-5,10-11H

> <OPENEYE_INCHIKEY>
YNCYPMUJDDXIRH-UHFFFAOYSA-N

> <FORMULA>
C8H7BO2S

$$$$
