C6S
  -OEChem-07282321083D

 43 45  0     1  0  0  0  0  0999 V2000
    0.1200    1.8770   -1.4060 O   0  0  0  0  0  0  0  0  0  0  0  0
    0.6970    0.9520   -0.4960 B   0  0  0  0  0  0  0  0  0  0  0  0
    2.0720    1.0130   -0.1380 O   0  0  0  0  0  0  0  0  0  0  0  0
    2.6880   -0.1920   -0.0320 C   0  0  0  0  0  0  0  0  0  0  0  0
    2.0210   -1.4000   -0.0380 C   0  0  0  0  0  0  0  0  0  0  0  0
    0.5260   -1.5220   -0.1880 C   0  0  0  0  0  0  0  0  0  0  0  0
   -0.1570   -0.1950    0.1770 C   0  0  2  0  0  0  0  0  0  0  0  0
   -1.5250   -0.1730   -0.3460 N   0  0  0  0  0  0  0  0  0  0  0  0
   -2.5290    0.3100    0.4130 C   0  0  0  0  0  0  0  0  0  0  0  0
   -2.2990    0.7280    1.5280 O   0  0  0  0  0  0  0  0  0  0  0  0
   -3.9370    0.3330   -0.1250 C   0  0  0  0  0  0  0  0  0  0  0  0
   -4.8750    0.9260    0.9280 C   0  0  0  0  0  0  0  0  0  0  0  0
   -6.3040    0.9490    0.3820 C   0  0  0  0  0  0  0  0  0  0  0  0
   -6.7460   -0.4780    0.0500 C   0  0  0  0  0  0  0  0  0  0  0  0
   -5.8080   -1.0710   -1.0030 C   0  0  0  0  0  0  0  0  0  0  0  0
   -4.3780   -1.0940   -0.4570 C   0  0  0  0  0  0  0  0  0  0  0  0
    2.7410   -2.5810    0.0920 C   0  0  0  0  0  0  0  0  0  0  0  0
    4.1170   -2.5690    0.2180 C   0  0  0  0  0  0  0  0  0  0  0  0
    4.7990   -1.3720    0.2160 C   0  0  0  0  0  0  0  0  0  0  0  0
    4.0920   -0.1760    0.0920 C   0  0  0  0  0  0  0  0  0  0  0  0
    4.8150    1.1080    0.0890 C   0  0  0  0  0  0  0  0  0  0  0  0
    4.2020    2.1510   -0.0200 O   0  0  0  0  0  0  0  0  0  0  0  0
    6.1580    1.1250    0.2080 O   0  0  0  0  0  0  0  0  0  0  0  0
    0.7430    2.5340   -1.7470 H   0  0  0  0  0  0  0  0  0  0  0  0
   -0.1690   -0.0640    1.2590 H   0  0  0  0  0  0  0  0  0  0  0  0
    0.2860   -1.7810   -1.2190 H   0  0  0  0  0  0  0  0  0  0  0  0
    0.1600   -2.3070    0.4730 H   0  0  0  0  0  0  0  0  0  0  0  0
    2.2160   -3.5250    0.0960 H   0  0  0  0  0  0  0  0  0  0  0  0
   -1.7090   -0.5070   -1.2380 H   0  0  0  0  0  0  0  0  0  0  0  0
   -3.9710    0.9430   -1.0280 H   0  0  0  0  0  0  0  0  0  0  0  0
   -4.8410    0.3160    1.8300 H   0  0  0  0  0  0  0  0  0  0  0  0
   -4.5600    1.9420    1.1640 H   0  0  0  0  0  0  0  0  0  0  0  0
   -3.7100   -1.5160   -1.2070 H   0  0  0  0  0  0  0  0  0  0  0  0
   -4.3440   -1.7040    0.4450 H   0  0  0  0  0  0  0  0  0  0  0  0
   -6.9730    1.3710    1.1310 H   0  0  0  0  0  0  0  0  0  0  0  0
   -6.3390    1.5590   -0.5210 H   0  0  0  0  0  0  0  0  0  0  0  0
   -6.7120   -1.0880    0.9520 H   0  0  0  0  0  0  0  0  0  0  0  0
   -7.7640   -0.4620   -0.3390 H   0  0  0  0  0  0  0  0  0  0  0  0
   -6.1220   -2.0870   -1.2400 H   0  0  0  0  0  0  0  0  0  0  0  0
   -5.8420   -0.4610   -1.9060 H   0  0  0  0  0  0  0  0  0  0  0  0
    4.6580   -3.4980    0.3190 H   0  0  0  0  0  0  0  0  0  0  0  0
    5.8750   -1.3600    0.3110 H   0  0  0  0  0  0  0  0  0  0  0  0
    6.5880    1.9920    0.2010 H   0  0  0  0  0  0  0  0  0  0  0  0
  1  2  1  0  0  0  0
  2  3  1  0  0  0  0
  2  7  1  0  0  0  0
  3  4  1  0  0  0  0
  4  5  1  0  0  0  0
  4 20  2  0  0  0  0
  5  6  1  0  0  0  0
  5 17  2  0  0  0  0
  6  7  1  0  0  0  0
  7  8  1  0  0  0  0
  8  9  1  0  0  0  0
  9 10  2  0  0  0  0
  9 11  1  0  0  0  0
 11 12  1  0  0  0  0
 11 16  1  0  0  0  0
 12 13  1  0  0  0  0
 13 14  1  0  0  0  0
 14 15  1  0  0  0  0
 15 16  1  0  0  0  0
 17 18  1  0  0  0  0
 18 19  2  0  0  0  0
 19 20  1  0  0  0  0
 20 21  1  0  0  0  0
 21 22  2  0  0  0  0
 21 23  1  0  0  0  0
  1 24  1  0  0  0  0
  7 25  1  0  0  0  0
  6 26  1  0  0  0  0
  6 27  1  0  0  0  0
 17 28  1  0  0  0  0
  8 29  1  0  0  0  0
 11 30  1  0  0  0  0
 12 31  1  0  0  0  0
 12 32  1  0  0  0  0
 16 33  1  0  0  0  0
 16 34  1  0  0  0  0
 13 35  1  0  0  0  0
 13 36  1  0  0  0  0
 14 37  1  0  0  0  0
 14 38  1  0  0  0  0
 15 39  1  0  0  0  0
 15 40  1  0  0  0  0
 18 41  1  0  0  0  0
 19 42  1  0  0  0  0
 23 43  1  0  0  0  0
M  END
> <OPENEYE_ISO_SMILES>
B1([C@H](Cc2cccc(c2O1)C(=O)O)NC(=O)C3CCCCC3)O

> <OPENEYE_INCHI>
InChI=1S/C16H20BNO5/c19-15(10-5-2-1-3-6-10)18-13-9-11-7-4-8-12(16(20)21)14(11)23-17(13)22/h4,7-8,10,13,22H,1-3,5-6,9H2,(H,18,19)(H,20,21)/t13-/m0/s1

> <OPENEYE_INCHIKEY>
ZRHUJXRVIMMHFG-ZDUSSCGKSA-N

> <FORMULA>
C16H20BNO5

$$$$
