C8V
  -OEChem-07282321083D

 49 50  0     1  0  0  0  0  0999 V2000
   -7.5840   -0.9210    0.7780 O   0  0  0  0  0  0  0  0  0  0  0  0
   -6.8040    0.0120    0.0430 S   0  0  0  0  0  0  0  0  0  0  0  0
   -6.9590   -0.3610   -1.4250 O   0  0  0  0  0  0  0  0  0  0  0  0
   -6.9940    1.4170    0.1220 O   0  0  0  0  0  0  0  0  0  0  0  0
   -5.3530   -0.2480    0.4230 O   0  0  0  0  0  0  0  0  0  0  0  0
   -4.4160    0.7510   -0.0900 N   0  0  0  0  0  0  0  0  0  0  0  0
   -3.0390    0.4380    0.3140 C   0  0  2  0  0  0  0  0  0  0  0  0
   -2.2380    1.7350    0.4510 C   0  0  0  0  0  0  0  0  0  0  0  0
   -0.8130    1.4110    0.9040 C   0  0  0  0  0  0  0  0  0  0  0  0
   -2.3840   -0.4520   -0.7470 C   0  0  0  0  0  0  0  0  0  0  0  0
   -0.9720   -0.6490   -0.3940 N   0  0  0  0  0  0  0  0  0  0  0  0
   -0.4550   -1.8900   -0.2950 C   0  0  0  0  0  0  0  0  0  0  0  0
   -1.1780   -2.8580   -0.4020 O   0  0  0  0  0  0  0  0  0  0  0  0
   -0.1330    0.5330   -0.1510 C   0  0  2  0  0  0  0  0  0  0  0  0
    1.2200    0.0980    0.3490 C   0  0  0  0  0  0  0  0  0  0  0  0
    1.3040   -0.7550    1.2070 O   0  0  0  0  0  0  0  0  0  0  0  0
    2.3380    0.6560   -0.1570 N   0  0  0  0  0  0  0  0  0  0  0  0
    3.5950    0.2520    0.3080 N   0  0  0  0  0  0  0  0  0  0  0  0
    4.7130    0.8100   -0.1980 C   0  0  0  0  0  0  0  0  0  0  0  0
    4.6290    1.6630   -1.0560 O   0  0  0  0  0  0  0  0  0  0  0  0
    6.0660    0.3750    0.3030 C   0  0  2  0  0  0  0  0  0  0  0  0
    7.1590    1.1550   -0.4330 C   0  0  0  0  0  0  0  0  0  0  0  0
    8.5310    0.6650    0.0380 C   0  0  0  0  0  0  0  0  0  0  0  0
    8.6440   -0.8400   -0.2160 C   0  0  0  0  0  0  0  0  0  0  0  0
    7.5770   -1.5420    0.5100 N   0  0  0  0  0  0  0  0  0  0  0  0
    6.2510   -1.1210    0.0410 C   0  0  0  0  0  0  0  0  0  0  0  0
   -4.4880    0.8340   -1.0930 H   0  0  0  0  0  0  0  0  0  0  0  0
   -3.0500   -0.0860    1.2700 H   0  0  0  0  0  0  0  0  0  0  0  0
   -2.2070    2.2450   -0.5120 H   0  0  0  0  0  0  0  0  0  0  0  0
   -2.7160    2.3800    1.1880 H   0  0  0  0  0  0  0  0  0  0  0  0
   -0.2500    2.3370    1.0230 H   0  0  0  0  0  0  0  0  0  0  0  0
   -0.8450    0.8790    1.8540 H   0  0  0  0  0  0  0  0  0  0  0  0
   -2.8910   -1.4170   -0.7790 H   0  0  0  0  0  0  0  0  0  0  0  0
   -2.4560    0.0300   -1.7220 H   0  0  0  0  0  0  0  0  0  0  0  0
    0.6030   -2.0220   -0.1210 H   0  0  0  0  0  0  0  0  0  0  0  0
   -0.0190    1.0960   -1.0770 H   0  0  0  0  0  0  0  0  0  0  0  0
    2.2710    1.3380   -0.8430 H   0  0  0  0  0  0  0  0  0  0  0  0
    3.6620   -0.4310    0.9950 H   0  0  0  0  0  0  0  0  0  0  0  0
    6.1380    0.5690    1.3730 H   0  0  0  0  0  0  0  0  0  0  0  0
    7.0620    0.9920   -1.5070 H   0  0  0  0  0  0  0  0  0  0  0  0
    7.0560    2.2190   -0.2160 H   0  0  0  0  0  0  0  0  0  0  0  0
    9.3120    1.1870   -0.5140 H   0  0  0  0  0  0  0  0  0  0  0  0
    8.6420    0.8640    1.1040 H   0  0  0  0  0  0  0  0  0  0  0  0
    8.5460   -1.0360   -1.2840 H   0  0  0  0  0  0  0  0  0  0  0  0
    9.6140   -1.1950    0.1310 H   0  0  0  0  0  0  0  0  0  0  0  0
    7.6870   -2.5420    0.4360 H   0  0  0  0  0  0  0  0  0  0  0  0
    5.4830   -1.6810    0.5760 H   0  0  0  0  0  0  0  0  0  0  0  0
    6.1640   -1.3170   -1.0270 H   0  0  0  0  0  0  0  0  0  0  0  0
   -7.8530   -0.2320   -1.7710 H   0  0  0  0  0  0  0  0  0  0  0  0
  1  2  2  0  0  0  0
  2  4  2  0  0  0  0
  2  5  1  0  0  0  0
  2  3  1  0  0  0  0
  5  6  1  0  0  0  0
  6  7  1  0  0  0  0
  8  9  1  0  0  0  0
  9 14  1  0  0  0  0
  7  8  1  0  0  0  0
 12 13  2  0  0  0  0
  7 10  1  0  0  0  0
 11 12  1  0  0  0  0
 11 14  1  0  0  0  0
 14 15  1  0  0  0  0
 10 11  1  0  0  0  0
 15 17  1  0  0  0  0
 17 18  1  0  0  0  0
 15 16  2  0  0  0  0
 23 24  1  0  0  0  0
 22 23  1  0  0  0  0
 24 25  1  0  0  0  0
 19 20  2  0  0  0  0
 18 19  1  0  0  0  0
 19 21  1  0  0  0  0
 25 26  1  0  0  0  0
 21 22  1  0  0  0  0
 21 26  1  0  0  0  0
  6 27  1  0  0  0  0
  7 28  1  0  0  0  0
  8 29  1  0  0  0  0
  8 30  1  0  0  0  0
  9 31  1  0  0  0  0
  9 32  1  0  0  0  0
 10 33  1  0  0  0  0
 10 34  1  0  0  0  0
 12 35  1  0  0  0  0
 14 36  1  0  0  0  0
 17 37  1  0  0  0  0
 18 38  1  0  0  0  0
 21 39  1  0  0  0  0
 22 40  1  0  0  0  0
 22 41  1  0  0  0  0
 23 42  1  0  0  0  0
 23 43  1  0  0  0  0
 24 44  1  0  0  0  0
 24 45  1  0  0  0  0
 25 46  1  0  0  0  0
 26 47  1  0  0  0  0
 26 48  1  0  0  0  0
  3 49  1  0  0  0  0
M  END
> <OPENEYE_ISO_SMILES>
C1C[C@H](CNC1)C(=O)NNC(=O)[C@@H]2CC[C@H](CN2C=O)NOS(=O)(=O)O

> <OPENEYE_INCHI>
InChI=1S/C13H23N5O7S/c19-8-18-7-10(17-25-26(22,23)24)3-4-11(18)13(21)16-15-12(20)9-2-1-5-14-6-9/h8-11,14,17H,1-7H2,(H,15,20)(H,16,21)(H,22,23,24)/t9-,10-,11+/m1/s1

> <OPENEYE_INCHIKEY>
KMYLRFCWFBWPGR-MXWKQRLJSA-N

> <FORMULA>
C13H23N5O7S

$$$$
