REMARK  8 active torsions:
REMARK  status: ('A' for Active; 'I' for Inactive)
REMARK    1  A    between atoms: S_2  and  O_5 
REMARK    2  A    between atoms: S_2  and  O_3 
REMARK    3  A    between atoms: O_5  and  N_6 
REMARK    4  A    between atoms: N_6  and  C_7 
REMARK    5  A    between atoms: N_11  and  C_12 
REMARK    6  A    between atoms: C_14  and  C_15 
REMARK       I    between atoms: C_15  and  N_17 
REMARK    7  A    between atoms: N_17  and  N_18 
REMARK       I    between atoms: N_18  and  C_19 
REMARK    8  A    between atoms: C_19  and  C_21 
ROOT
HETATM    1  C   UNL     1      -3.039   0.438   0.314  1.00  0.00     0.103 C 
HETATM    2  C   UNL     1      -2.238   1.735   0.451  1.00  0.00     0.026 C 
HETATM    3  C   UNL     1      -0.813   1.411   0.904  1.00  0.00     0.037 C 
HETATM    4  C   UNL     1      -2.384  -0.452  -0.747  1.00  0.00     0.148 C 
HETATM    5  N   UNL     1      -0.972  -0.649  -0.394  1.00  0.00    -0.344 N 
HETATM    6  C   UNL     1      -0.133   0.533  -0.151  1.00  0.00     0.180 C 
ENDROOT
BRANCH   6   7
HETATM    7  C   UNL     1       1.220   0.098   0.349  1.00  0.00     0.259 C 
HETATM    8  N   UNL     1       2.338   0.656  -0.157  1.00  0.00    -0.266 N 
HETATM    9  H   UNL     1       2.271   1.338  -0.843  1.00  0.00     0.190 HD
HETATM   10  O   UNL     1       1.304  -0.755   1.207  1.00  0.00    -0.269 OA
BRANCH   8  11
HETATM   11  N   UNL     1       3.595   0.252   0.308  1.00  0.00    -0.267 N 
HETATM   12  C   UNL     1       4.713   0.810  -0.198  1.00  0.00     0.241 C 
HETATM   13  O   UNL     1       4.629   1.663  -1.056  1.00  0.00    -0.271 OA
HETATM   14  H   UNL     1       3.662  -0.431   0.995  1.00  0.00     0.190 HD
BRANCH  12  15
HETATM   15  C   UNL     1       6.066   0.375   0.303  1.00  0.00     0.107 C 
HETATM   16  C   UNL     1       7.159   1.155  -0.433  1.00  0.00     0.017 C 
HETATM   17  C   UNL     1       8.531   0.665   0.038  1.00  0.00     0.031 C 
HETATM   18  C   UNL     1       8.644  -0.840  -0.216  1.00  0.00     0.269 C 
HETATM   19  N   UNL     1       7.577  -1.542   0.510  1.00  0.00     0.084 N 
HETATM   20  C   UNL     1       6.251  -1.121   0.041  1.00  0.00     0.283 C 
HETATM   21  H   UNL     1       7.687  -2.542   0.436  1.00  0.00     0.315 HD
ENDBRANCH  12  15
ENDBRANCH   8  11
ENDBRANCH   6   7
BRANCH   5  22
HETATM   22  C   UNL     1      -0.455  -1.890  -0.295  1.00  0.00     0.351 C 
HETATM   23  O   UNL     1      -1.178  -2.858  -0.402  1.00  0.00    -0.284 OA
ENDBRANCH   5  22
BRANCH   1  24
HETATM   24  N   UNL     1      -4.416   0.751  -0.090  1.00  0.00    -0.180 NA
HETATM   25  H   UNL     1      -4.488   0.834  -1.093  1.00  0.00     0.155 HD
BRANCH  24  26
HETATM   26  O   UNL     1      -5.353  -0.248   0.423  1.00  0.00    -0.167 OA
BRANCH  26  27
HETATM   27  S   UNL     1      -6.804   0.012   0.043  1.00  0.00     0.257 S 
HETATM   28  O   UNL     1      -7.584  -0.921   0.778  1.00  0.00    -0.578 OA
HETATM   29  O   UNL     1      -6.994   1.417   0.122  1.00  0.00    -0.578 OA
BRANCH  27  30
HETATM   30  O   UNL     1      -6.959  -0.361  -1.425  1.00  0.00    -0.273 OA
HETATM   31  H   UNL     1      -7.853  -0.232  -1.771  1.00  0.00     0.234 HD
ENDBRANCH  27  30
ENDBRANCH  26  27
ENDBRANCH  24  26
ENDBRANCH   1  24
TORSDOF 8
