C8Y
  -OEChem-07282321083D

 27 27  0     1  0  0  0  0  0999 V2000
    3.5600   -1.2090   -0.5260 O   0  0  0  0  0  0  0  0  0  0  0  0
    3.2990   -0.0640    0.2730 S   0  0  0  0  0  0  0  0  0  0  0  0
    3.7100    0.0480    1.6290 O   0  0  0  0  0  0  0  0  0  0  0  0
    3.9120    1.1200   -0.4610 O   0  0  0  0  0  0  0  0  0  0  0  0
    1.7900    0.1330    0.2640 O   0  0  0  0  0  0  0  0  0  0  0  0
    1.1620   -0.1440   -1.0280 N   0  0  0  0  0  0  0  0  0  0  0  0
   -0.2900    0.0660   -0.9640 C   0  0  2  0  0  0  0  0  0  0  0  0
   -0.5800    1.5180   -0.5790 C   0  0  0  0  0  0  0  0  0  0  0  0
   -2.0930    1.7470   -0.5440 C   0  0  0  0  0  0  0  0  0  0  0  0
   -2.7180    0.8320    0.5150 C   0  0  1  0  0  0  0  0  0  0  0  0
   -4.1850    0.9510    0.4650 C   0  0  0  0  0  0  0  0  0  0  0  0
   -5.3160    1.0430    0.4270 N   0  0  0  0  0  0  0  0  0  0  0  0
   -2.3240   -0.5550    0.2350 N   0  0  0  0  0  0  0  0  0  0  0  0
   -3.2540   -1.5220    0.1120 C   0  0  0  0  0  0  0  0  0  0  0  0
   -2.9240   -2.6440   -0.2090 O   0  0  0  0  0  0  0  0  0  0  0  0
   -0.8950   -0.8680    0.0900 C   0  0  0  0  0  0  0  0  0  0  0  0
    1.3790   -1.0780   -1.3430 H   0  0  0  0  0  0  0  0  0  0  0  0
   -0.7330   -0.1480   -1.9360 H   0  0  0  0  0  0  0  0  0  0  0  0
   -0.1580    1.7250    0.4050 H   0  0  0  0  0  0  0  0  0  0  0  0
   -0.1300    2.1850   -1.3140 H   0  0  0  0  0  0  0  0  0  0  0  0
   -2.2980    2.7870   -0.2930 H   0  0  0  0  0  0  0  0  0  0  0  0
   -2.5190    1.5170   -1.5200 H   0  0  0  0  0  0  0  0  0  0  0  0
   -2.3620    1.1210    1.5040 H   0  0  0  0  0  0  0  0  0  0  0  0
   -4.2940   -1.2980    0.3010 H   0  0  0  0  0  0  0  0  0  0  0  0
   -0.7780   -1.9030   -0.2290 H   0  0  0  0  0  0  0  0  0  0  0  0
   -0.3900   -0.7170    1.0440 H   0  0  0  0  0  0  0  0  0  0  0  0
    4.8780    1.0940   -0.5120 H   0  0  0  0  0  0  0  0  0  0  0  0
 11 12  3  0  0  0  0
 10 11  1  0  0  0  0
 13 16  1  0  0  0  0
  7 16  1  0  0  0  0
 10 13  1  0  0  0  0
 13 14  1  0  0  0  0
  9 10  1  0  0  0  0
 14 15  2  0  0  0  0
  7  8  1  0  0  0  0
  6  7  1  0  0  0  0
  8  9  1  0  0  0  0
  5  6  1  0  0  0  0
  2  3  2  0  0  0  0
  2  5  1  0  0  0  0
  1  2  2  0  0  0  0
  2  4  1  0  0  0  0
  6 17  1  0  0  0  0
  7 18  1  0  0  0  0
  8 19  1  0  0  0  0
  8 20  1  0  0  0  0
  9 21  1  0  0  0  0
  9 22  1  0  0  0  0
 10 23  1  0  0  0  0
 14 24  1  0  0  0  0
 16 25  1  0  0  0  0
 16 26  1  0  0  0  0
  4 27  1  0  0  0  0
M  END
> <OPENEYE_ISO_SMILES>
C1C[C@H](N(C[C@@H]1NOS(=O)(=O)O)C=O)C#N

> <OPENEYE_INCHI>
InChI=1S/C7H11N3O5S/c8-3-7-2-1-6(4-10(7)5-11)9-15-16(12,13)14/h5-7,9H,1-2,4H2,(H,12,13,14)/t6-,7+/m1/s1

> <OPENEYE_INCHIKEY>
QMRJJHLCVKRXGQ-RQJHMYQMSA-N

> <FORMULA>
C7H11N3O5S

$$$$
