C9D
  -OEChem-07282321083D

 46 47  0     1  0  0  0  0  0999 V2000
   -7.2750   -0.8260    0.7540 O   0  0  0  0  0  0  0  0  0  0  0  0
   -6.4710    0.0350   -0.0400 S   0  0  0  0  0  0  0  0  0  0  0  0
   -6.5940   -0.4620   -1.4730 O   0  0  0  0  0  0  0  0  0  0  0  0
   -6.6520    1.4440   -0.0870 O   0  0  0  0  0  0  0  0  0  0  0  0
   -5.0310   -0.1980    0.3960 O   0  0  0  0  0  0  0  0  0  0  0  0
   -4.0750    0.7480   -0.1780 N   0  0  0  0  0  0  0  0  0  0  0  0
   -2.7100    0.4640    0.2850 C   0  0  2  0  0  0  0  0  0  0  0  0
   -1.9040    1.7640    0.3270 C   0  0  0  0  0  0  0  0  0  0  0  0
   -0.4910    1.4740    0.8410 C   0  0  0  0  0  0  0  0  0  0  0  0
   -2.0370   -0.5180   -0.6790 C   0  0  0  0  0  0  0  0  0  0  0  0
   -0.6350   -0.6910   -0.2760 N   0  0  0  0  0  0  0  0  0  0  0  0
   -0.1300   -1.9210   -0.0580 C   0  0  0  0  0  0  0  0  0  0  0  0
   -0.8570   -2.8910   -0.0970 O   0  0  0  0  0  0  0  0  0  0  0  0
    0.2060    0.5030   -0.1170 C   0  0  2  0  0  0  0  0  0  0  0  0
    1.5440    0.1060    0.4520 C   0  0  0  0  0  0  0  0  0  0  0  0
    1.6010   -0.6690    1.3830 O   0  0  0  0  0  0  0  0  0  0  0  0
    2.6770    0.6130   -0.0730 N   0  0  0  0  0  0  0  0  0  0  0  0
    3.9210    0.2440    0.4560 N   0  0  0  0  0  0  0  0  0  0  0  0
    5.0540    0.7510   -0.0700 C   0  0  0  0  0  0  0  0  0  0  0  0
    4.9970    1.5260   -1.0010 O   0  0  0  0  0  0  0  0  0  0  0  0
    6.3920    0.3540    0.4990 C   0  0  2  0  0  0  0  0  0  0  0  0
    7.5350    1.0060   -0.3120 C   0  0  0  0  0  0  0  0  0  0  0  0
    8.6010   -0.1160   -0.3730 C   0  0  0  0  0  0  0  0  0  0  0  0
    7.7870   -1.3500   -0.5230 N   0  0  0  0  0  0  0  0  0  0  0  0
    6.6080   -1.1630    0.3490 C   0  0  0  0  0  0  0  0  0  0  0  0
   -4.1230    0.7440   -1.1860 H   0  0  0  0  0  0  0  0  0  0  0  0
   -2.7480    0.0260    1.2820 H   0  0  0  0  0  0  0  0  0  0  0  0
   -1.8450    2.1880   -0.6750 H   0  0  0  0  0  0  0  0  0  0  0  0
   -2.3940    2.4740    0.9940 H   0  0  0  0  0  0  0  0  0  0  0  0
    0.0750    2.4040    0.8930 H   0  0  0  0  0  0  0  0  0  0  0  0
   -0.5500    1.0270    1.8330 H   0  0  0  0  0  0  0  0  0  0  0  0
   -2.5500   -1.4790   -0.6390 H   0  0  0  0  0  0  0  0  0  0  0  0
   -2.0820   -0.1230   -1.6940 H   0  0  0  0  0  0  0  0  0  0  0  0
    0.9230   -2.0430    0.1530 H   0  0  0  0  0  0  0  0  0  0  0  0
    0.3470    0.9830   -1.0860 H   0  0  0  0  0  0  0  0  0  0  0  0
    2.6320    1.2330   -0.8180 H   0  0  0  0  0  0  0  0  0  0  0  0
    3.9670   -0.3760    1.2000 H   0  0  0  0  0  0  0  0  0  0  0  0
    6.4570    0.6430    1.5480 H   0  0  0  0  0  0  0  0  0  0  0  0
    7.1950    1.2710   -1.3130 H   0  0  0  0  0  0  0  0  0  0  0  0
    7.9230    1.8830    0.2060 H   0  0  0  0  0  0  0  0  0  0  0  0
    9.2550    0.0210   -1.2340 H   0  0  0  0  0  0  0  0  0  0  0  0
    9.1800   -0.1470    0.5500 H   0  0  0  0  0  0  0  0  0  0  0  0
    7.5090   -1.4850   -1.4840 H   0  0  0  0  0  0  0  0  0  0  0  0
    6.7930   -1.6110    1.3260 H   0  0  0  0  0  0  0  0  0  0  0  0
    5.7300   -1.6200   -0.1100 H   0  0  0  0  0  0  0  0  0  0  0  0
   -7.4780   -0.3600   -1.8510 H   0  0  0  0  0  0  0  0  0  0  0  0
  2  4  2  0  0  0  0
  1  2  2  0  0  0  0
  2  5  1  0  0  0  0
  2  3  1  0  0  0  0
  5  6  1  0  0  0  0
  6  7  1  0  0  0  0
  8  9  1  0  0  0  0
  9 14  1  0  0  0  0
  7  8  1  0  0  0  0
 12 13  2  0  0  0  0
  7 10  1  0  0  0  0
 11 12  1  0  0  0  0
 11 14  1  0  0  0  0
 14 15  1  0  0  0  0
 10 11  1  0  0  0  0
 15 17  1  0  0  0  0
 17 18  1  0  0  0  0
 15 16  2  0  0  0  0
 18 19  1  0  0  0  0
 19 20  2  0  0  0  0
 19 21  1  0  0  0  0
 22 23  1  0  0  0  0
 23 24  1  0  0  0  0
 21 22  1  0  0  0  0
 21 25  1  0  0  0  0
 24 25  1  0  0  0  0
  6 26  1  0  0  0  0
  7 27  1  0  0  0  0
  8 28  1  0  0  0  0
  8 29  1  0  0  0  0
  9 30  1  0  0  0  0
  9 31  1  0  0  0  0
 10 32  1  0  0  0  0
 10 33  1  0  0  0  0
 12 34  1  0  0  0  0
 14 35  1  0  0  0  0
 17 36  1  0  0  0  0
 18 37  1  0  0  0  0
 21 38  1  0  0  0  0
 22 39  1  0  0  0  0
 22 40  1  0  0  0  0
 23 41  1  0  0  0  0
 23 42  1  0  0  0  0
 24 43  1  0  0  0  0
 25 44  1  0  0  0  0
 25 45  1  0  0  0  0
  3 46  1  0  0  0  0
M  END
> <OPENEYE_ISO_SMILES>
C1C[C@H](N(C[C@@H]1NOS(=O)(=O)O)C=O)C(=O)NNC(=O)[C@@H]2CCNC2

> <OPENEYE_INCHI>
InChI=1S/C12H21N5O7S/c18-7-17-6-9(16-24-25(21,22)23)1-2-10(17)12(20)15-14-11(19)8-3-4-13-5-8/h7-10,13,16H,1-6H2,(H,14,19)(H,15,20)(H,21,22,23)/t8-,9-,10+/m1/s1

> <OPENEYE_INCHIKEY>
MPNPDELHXLJIKQ-BBBLOLIVSA-N

> <FORMULA>
C12H21N5O7S

$$$$
