REMARK  8 active torsions:
REMARK  status: ('A' for Active; 'I' for Inactive)
REMARK    1  A    between atoms: S_2  and  O_5 
REMARK    2  A    between atoms: S_2  and  O_3 
REMARK    3  A    between atoms: O_5  and  N_6 
REMARK    4  A    between atoms: N_6  and  C_7 
REMARK    5  A    between atoms: N_11  and  C_12 
REMARK    6  A    between atoms: C_14  and  C_15 
REMARK       I    between atoms: C_15  and  N_17 
REMARK    7  A    between atoms: N_17  and  N_18 
REMARK       I    between atoms: N_18  and  C_19 
REMARK    8  A    between atoms: C_19  and  C_21 
ROOT
HETATM    1  C   UNL     1      -2.710   0.464   0.285  1.00  0.00     0.103 C 
HETATM    2  C   UNL     1      -1.904   1.764   0.327  1.00  0.00     0.026 C 
HETATM    3  C   UNL     1      -0.491   1.474   0.841  1.00  0.00     0.037 C 
HETATM    4  C   UNL     1      -2.037  -0.518  -0.679  1.00  0.00     0.148 C 
HETATM    5  N   UNL     1      -0.635  -0.691  -0.276  1.00  0.00    -0.344 N 
HETATM    6  C   UNL     1       0.206   0.503  -0.117  1.00  0.00     0.180 C 
ENDROOT
BRANCH   6   7
HETATM    7  C   UNL     1       1.544   0.106   0.452  1.00  0.00     0.259 C 
HETATM    8  N   UNL     1       2.677   0.613  -0.073  1.00  0.00    -0.266 N 
HETATM    9  H   UNL     1       2.632   1.233  -0.818  1.00  0.00     0.190 HD
HETATM   10  O   UNL     1       1.601  -0.669   1.383  1.00  0.00    -0.269 OA
BRANCH   8  11
HETATM   11  N   UNL     1       3.921   0.244   0.456  1.00  0.00    -0.267 N 
HETATM   12  C   UNL     1       5.054   0.751  -0.070  1.00  0.00     0.242 C 
HETATM   13  O   UNL     1       4.997   1.526  -1.001  1.00  0.00    -0.271 OA
HETATM   14  H   UNL     1       3.967  -0.376   1.200  1.00  0.00     0.190 HD
BRANCH  12  15
HETATM   15  C   UNL     1       6.392   0.354   0.499  1.00  0.00     0.109 C 
HETATM   16  C   UNL     1       7.535   1.006  -0.312  1.00  0.00     0.046 C 
HETATM   17  C   UNL     1       8.601  -0.116  -0.373  1.00  0.00     0.270 C 
HETATM   18  N   UNL     1       7.787  -1.350  -0.523  1.00  0.00     0.084 N 
HETATM   19  C   UNL     1       6.608  -1.163   0.349  1.00  0.00     0.283 C 
HETATM   20  H   UNL     1       7.509  -1.485  -1.484  1.00  0.00     0.315 HD
ENDBRANCH  12  15
ENDBRANCH   8  11
ENDBRANCH   6   7
BRANCH   5  21
HETATM   21  C   UNL     1      -0.130  -1.921  -0.058  1.00  0.00     0.351 C 
HETATM   22  O   UNL     1      -0.857  -2.891  -0.097  1.00  0.00    -0.284 OA
ENDBRANCH   5  21
BRANCH   1  23
HETATM   23  N   UNL     1      -4.075   0.748  -0.178  1.00  0.00    -0.180 NA
HETATM   24  H   UNL     1      -4.123   0.744  -1.186  1.00  0.00     0.155 HD
BRANCH  23  25
HETATM   25  O   UNL     1      -5.031  -0.198   0.396  1.00  0.00    -0.167 OA
BRANCH  25  26
HETATM   26  S   UNL     1      -6.471   0.035  -0.040  1.00  0.00     0.257 S 
HETATM   27  O   UNL     1      -7.275  -0.826   0.754  1.00  0.00    -0.578 OA
HETATM   28  O   UNL     1      -6.652   1.444  -0.087  1.00  0.00    -0.578 OA
BRANCH  26  29
HETATM   29  O   UNL     1      -6.594  -0.462  -1.473  1.00  0.00    -0.273 OA
HETATM   30  H   UNL     1      -7.478  -0.360  -1.851  1.00  0.00     0.234 HD
ENDBRANCH  26  29
ENDBRANCH  25  26
ENDBRANCH  23  25
ENDBRANCH   1  23
TORSDOF 8
