C9P
  -OEChem-07282321083D

 44 46  0     0  0  0  0  0  0999 V2000
    4.2150   -1.0420    0.5330 C   0  0  0  0  0  0  0  0  0  0  0  0
    2.1130    1.1280   -1.5600 N   0  0  0  0  0  0  0  0  0  0  0  0
   -5.2060    0.4920   -0.7410 C   0  0  0  0  0  0  0  0  0  0  0  0
   -6.2770   -0.0880   -1.3950 C   0  0  0  0  0  0  0  0  0  0  0  0
   -6.8780   -1.2170   -0.8700 C   0  0  0  0  0  0  0  0  0  0  0  0
   -6.4070   -1.7660    0.3080 C   0  0  0  0  0  0  0  0  0  0  0  0
   -5.3350   -1.1860    0.9610 C   0  0  0  0  0  0  0  0  0  0  0  0
   -1.9020   -0.0780    0.6420 C   0  0  0  0  0  0  0  0  0  0  0  0
   -1.2170    0.4170   -0.4540 C   0  0  0  0  0  0  0  0  0  0  0  0
    5.5380   -2.9740    1.6420 O   0  0  0  0  0  0  0  0  0  0  0  0
    3.3720   -0.6210   -0.4880 C   0  0  0  0  0  0  0  0  0  0  0  0
    2.9550    0.7030   -0.5410 C   0  0  0  0  0  0  0  0  0  0  0  0
    3.3880    1.6090    0.4390 C   0  0  0  0  0  0  0  0  0  0  0  0
    1.5950   -1.0960   -2.4960 O   0  0  0  0  0  0  0  0  0  0  0  0
   -0.1290   -0.2740   -0.7960 C   0  0  0  0  0  0  0  0  0  0  0  0
    4.2350    1.1750    1.4610 C   0  0  0  0  0  0  0  0  0  0  0  0
   -3.4690    0.2910    2.6290 O   0  0  0  0  0  0  0  0  0  0  0  0
    4.6440   -0.1390    1.5060 C   0  0  0  0  0  0  0  0  0  0  0  0
   -1.3670   -1.1680    1.1940 C   0  0  0  0  0  0  0  0  0  0  0  0
    0.1690    0.8780   -3.0590 O   0  0  0  0  0  0  0  0  0  0  0  0
    2.9490    3.0170    0.3900 C   0  0  0  0  0  0  0  0  0  0  0  0
    2.2130    3.3940   -0.5000 O   0  0  0  0  0  0  0  0  0  0  0  0
    0.9400    0.1150   -2.1420 S   0  0  0  0  0  0  0  0  0  0  0  0
    3.3660    3.8860    1.3320 O   0  0  0  0  0  0  0  0  0  0  0  0
    4.2460   -3.4610   -0.3930 O   0  0  0  0  0  0  0  0  0  0  0  0
   -3.3660    0.6790    1.2660 S   0  0  0  0  0  0  0  0  0  0  0  0
    0.0770   -1.6320    0.3030 S   0  0  0  0  0  0  0  0  0  0  0  0
   -3.3260    2.0360    0.8460 O   0  0  0  0  0  0  0  0  0  0  0  0
   -4.7310   -0.0600    0.4330 C   0  0  0  0  0  0  0  0  0  0  0  0
    4.6810   -2.5400    0.5960 B   0  0  0  0  0  0  0  0  0  0  0  0
    2.2120    2.0190   -1.9310 H   0  0  0  0  0  0  0  0  0  0  0  0
   -4.7370    1.3750   -1.1510 H   0  0  0  0  0  0  0  0  0  0  0  0
   -6.6450    0.3410   -2.3150 H   0  0  0  0  0  0  0  0  0  0  0  0
   -7.7150   -1.6700   -1.3800 H   0  0  0  0  0  0  0  0  0  0  0  0
   -6.8760   -2.6480    0.7190 H   0  0  0  0  0  0  0  0  0  0  0  0
   -4.9670   -1.6150    1.8820 H   0  0  0  0  0  0  0  0  0  0  0  0
   -1.5400    1.2960   -0.9920 H   0  0  0  0  0  0  0  0  0  0  0  0
    5.7700   -3.9120    1.5970 H   0  0  0  0  0  0  0  0  0  0  0  0
    3.0420   -1.3220   -1.2400 H   0  0  0  0  0  0  0  0  0  0  0  0
    4.5700    1.8700    2.2170 H   0  0  0  0  0  0  0  0  0  0  0  0
    5.2950   -0.4730    2.3010 H   0  0  0  0  0  0  0  0  0  0  0  0
   -1.7610   -1.6870    2.0550 H   0  0  0  0  0  0  0  0  0  0  0  0
    3.0530    4.7980    1.2580 H   0  0  0  0  0  0  0  0  0  0  0  0
    4.5840   -4.3590   -0.2710 H   0  0  0  0  0  0  0  0  0  0  0  0
  1 11  2  0  0  0  0
  1 18  1  0  0  0  0
  1 30  1  0  0  0  0
  2 23  1  0  0  0  0
  2 12  1  0  0  0  0
  2 31  1  0  0  0  0
  3 29  2  0  0  0  0
  3  4  1  0  0  0  0
  3 32  1  0  0  0  0
  4  5  2  0  0  0  0
  4 33  1  0  0  0  0
  5  6  1  0  0  0  0
  5 34  1  0  0  0  0
  6  7  2  0  0  0  0
  6 35  1  0  0  0  0
  7 29  1  0  0  0  0
  7 36  1  0  0  0  0
  8 19  2  0  0  0  0
  8  9  1  0  0  0  0
  8 26  1  0  0  0  0
  9 15  2  0  0  0  0
  9 37  1  0  0  0  0
 10 30  1  0  0  0  0
 10 38  1  0  0  0  0
 11 12  1  0  0  0  0
 11 39  1  0  0  0  0
 12 13  2  0  0  0  0
 13 21  1  0  0  0  0
 13 16  1  0  0  0  0
 14 23  2  0  0  0  0
 15 23  1  0  0  0  0
 15 27  1  0  0  0  0
 16 18  2  0  0  0  0
 16 40  1  0  0  0  0
 17 26  2  0  0  0  0
 18 41  1  0  0  0  0
 19 27  1  0  0  0  0
 19 42  1  0  0  0  0
 20 23  2  0  0  0  0
 21 22  2  0  0  0  0
 21 24  1  0  0  0  0
 24 43  1  0  0  0  0
 25 30  1  0  0  0  0
 25 44  1  0  0  0  0
 26 28  2  0  0  0  0
 26 29  1  0  0  0  0
M  END
> <OPENEYE_ISO_SMILES>
B(c1ccc(c(c1)NS(=O)(=O)c2cc(cs2)S(=O)(=O)c3ccccc3)C(=O)O)(O)O

> <OPENEYE_INCHI>
InChI=1S/C17H14BNO8S3/c20-17(21)14-7-6-11(18(22)23)8-15(14)19-30(26,27)16-9-13(10-28-16)29(24,25)12-4-2-1-3-5-12/h1-10,19,22-23H,(H,20,21)

> <OPENEYE_INCHIKEY>
JJPKFZAOXOEFHQ-UHFFFAOYSA-N

> <FORMULA>
C17H14BNO8S3

$$$$
