REMARK  12 active torsions:
REMARK  status: ('A' for Active; 'I' for Inactive)
REMARK    1  A    between atoms: CA_5  and  C_6 
REMARK    2  A    between atoms: C_6  and  O_7 
REMARK    3  A    between atoms: C_10  and  CA_11 
REMARK    4  A    between atoms: CA_11  and  C_12 
REMARK    5  A    between atoms: CA_11  and  N_14 
REMARK       I    between atoms: N_14  and  C_15 
REMARK    6  A    between atoms: C_15  and  C_17 
REMARK    7  A    between atoms: C_17  and  C_21 
REMARK    8  A    between atoms: N_18  and  O_19 
REMARK    9  A    between atoms: O_19  and  C_20 
REMARK   10  A    between atoms: C_20  and  C_29 
REMARK   11  A    between atoms: C_24  and  N_25 
REMARK   12  A    between atoms: C_29  and  O_30 
ROOT
HETATM    1  N   UNL     1      -0.331  -0.314  -0.865  1.00  0.00    -0.342 N 
HETATM    2  C   UNL     1       0.915  -0.494  -0.385  1.00  0.00     0.275 C 
HETATM    3  O   UNL     1       1.289  -1.607  -0.069  1.00  0.00    -0.266 OA
HETATM    4  H   UNL     1      -0.647   0.580  -1.069  1.00  0.00     0.163 HD
ENDROOT
BRANCH   2   5
HETATM    5  C   UNL     1       1.829   0.663  -0.242  1.00  0.00     0.180 C 
HETATM    6  N   UNL     1       3.084   0.470   0.051  1.00  0.00    -0.125 NA
BRANCH   6   7
HETATM    7  O   UNL     1       3.548  -0.833   0.354  1.00  0.00    -0.234 OA
BRANCH   7   8
HETATM    8  C   UNL     1       4.946  -0.720   0.628  1.00  0.00     0.168 C 
HETATM    9  C   UNL     1       5.663  -0.160  -0.602  1.00  0.00     0.060 C 
HETATM   10  C   UNL     1       5.159   0.222   1.815  1.00  0.00     0.060 C 
BRANCH   8  11
HETATM   11  C   UNL     1       5.504  -2.080   0.959  1.00  0.00     0.178 C 
HETATM   12  O   UNL     1       4.780  -3.047   0.960  1.00  0.00    -0.648 OA
BRANCH  11  13
HETATM   13  O   UNL     1       6.807  -2.217   1.253  1.00  0.00    -0.774 OA
HETATM   14  H   UNL     1       7.165  -3.090   1.465  1.00  0.00     0.167 HD
ENDBRANCH  11  13
ENDBRANCH   8  11
ENDBRANCH   7   8
ENDBRANCH   6   7
BRANCH   5  15
HETATM   15  C   UNL     1       1.317   2.037  -0.431  1.00  0.00     0.102 A 
HETATM   16  C   UNL     1       2.185   3.087  -0.573  1.00  0.00     0.087 A 
HETATM   17  S   UNL     1       1.037   4.445  -0.762  1.00  0.00    -0.062 SA
HETATM   18  C   UNL     1      -0.468   3.490  -0.635  1.00  0.00     0.164 A 
HETATM   19  N   UNL     1       0.005   2.269  -0.472  1.00  0.00    -0.222 NA
BRANCH  18  20
HETATM   20  N   UNL     1      -1.783   3.917  -0.698  1.00  0.00    -0.378 N 
HETATM   21  H   UNL     1      -1.982   4.857  -0.828  1.00  0.00     0.158 HD
HETATM   22  H   UNL     1      -2.506   3.276  -0.612  1.00  0.00     0.158 HD
ENDBRANCH  18  20
ENDBRANCH   5  15
ENDBRANCH   2   5
BRANCH   1  23
HETATM   23  CA  UNL     1      -1.208  -1.468  -1.078  1.00  0.00     0.181 C 
BRANCH  23  24
HETATM   24  C   UNL     1      -2.669  -1.017  -1.011  1.00  0.00     0.199 C 
HETATM   25  S   UNL     1      -3.748  -2.470  -1.148  1.00  0.00    -0.135 SA
HETATM   26  C   UNL     1      -5.339  -1.680  -0.744  1.00  0.00     0.116 C 
HETATM   27  C   UNL     1      -5.191  -1.057   0.628  1.00  0.00    -0.023 C 
HETATM   28  C   UNL     1      -6.160  -1.176   1.531  1.00  0.00     0.022 C 
HETATM   29  CA  UNL     1      -3.961  -0.318   0.948  1.00  0.00     0.132 C 
HETATM   30  N   UNL     1      -2.897  -0.320   0.243  1.00  0.00    -0.264 NA
BRANCH  29  31
HETATM   31  C   UNL     1      -3.955   0.496   2.193  1.00  0.00     0.195 C 
HETATM   32  OXT UNL     1      -4.974   0.620   2.841  1.00  0.00    -0.645 OA
BRANCH  31  33
HETATM   33  O   UNL     1      -2.821   1.096   2.600  1.00  0.00    -0.772 OA
HETATM   34  H   UNL     1      -2.818   1.625   3.409  1.00  0.00     0.167 HD
ENDBRANCH  31  33
ENDBRANCH  29  31
ENDBRANCH  23  24
BRANCH  23  35
HETATM   35  C   UNL     1      -0.929  -2.068  -2.432  1.00  0.00     0.259 C 
HETATM   36  O   UNL     1      -0.084  -1.581  -3.145  1.00  0.00    -0.305 OA
ENDBRANCH  23  35
ENDBRANCH   1  23
TORSDOF 12
