CAZ
  -OEChem-07282321083D

 50 51  0     1  0  0  0  0  0999 V2000
   -3.7480   -2.4700   -1.1480 S   0  0  0  0  0  0  0  0  0  0  0  0
   -5.3390   -1.6800   -0.7440 C   0  0  0  0  0  0  0  0  0  0  0  0
   -5.1910   -1.0570    0.6280 C   0  0  0  0  0  0  0  0  0  0  0  0
   -6.1600   -1.1760    1.5310 C   0  0  0  0  0  0  0  0  0  0  0  0
   -3.9610   -0.3180    0.9480 C   0  0  0  0  0  0  0  0  0  0  0  0
   -3.9550    0.4960    2.1930 C   0  0  0  0  0  0  0  0  0  0  0  0
   -2.8210    1.0960    2.6000 O   0  0  0  0  0  0  0  0  0  0  0  0
   -4.9740    0.6200    2.8410 O   0  0  0  0  0  0  0  0  0  0  0  0
   -2.8970   -0.3200    0.2430 N   0  0  0  0  0  0  0  0  0  0  0  0
   -2.6690   -1.0170   -1.0110 C   0  0  1  0  0  0  0  0  0  0  0  0
   -1.2080   -1.4680   -1.0780 C   0  0  1  0  0  0  0  0  0  0  0  0
   -0.9290   -2.0680   -2.4320 C   0  0  0  0  0  0  0  0  0  0  0  0
   -0.0840   -1.5810   -3.1450 O   0  0  0  0  0  0  0  0  0  0  0  0
   -0.3310   -0.3140   -0.8650 N   0  0  0  0  0  0  0  0  0  0  0  0
    0.9150   -0.4940   -0.3850 C   0  0  0  0  0  0  0  0  0  0  0  0
    1.2890   -1.6070   -0.0690 O   0  0  0  0  0  0  0  0  0  0  0  0
    1.8290    0.6630   -0.2420 C   0  0  0  0  0  0  0  0  0  0  0  0
    3.0840    0.4700    0.0510 N   0  0  0  0  0  0  0  0  0  0  0  0
    3.5480   -0.8330    0.3540 O   0  0  0  0  0  0  0  0  0  0  0  0
    4.9460   -0.7200    0.6280 C   0  0  0  0  0  0  0  0  0  0  0  0
    1.3170    2.0370   -0.4310 C   0  0  0  0  0  0  0  0  0  0  0  0
    2.1850    3.0870   -0.5730 C   0  0  0  0  0  0  0  0  0  0  0  0
    1.0370    4.4450   -0.7620 S   0  0  0  0  0  0  0  0  0  0  0  0
   -0.4680    3.4900   -0.6350 C   0  0  0  0  0  0  0  0  0  0  0  0
   -1.7830    3.9170   -0.6980 N   0  0  0  0  0  0  0  0  0  0  0  0
    0.0050    2.2690   -0.4720 N   0  0  0  0  0  0  0  0  0  0  0  0
    5.6630   -0.1600   -0.6020 C   0  0  0  0  0  0  0  0  0  0  0  0
    5.1590    0.2220    1.8150 C   0  0  0  0  0  0  0  0  0  0  0  0
    5.5040   -2.0800    0.9590 C   0  0  0  0  0  0  0  0  0  0  0  0
    6.8070   -2.2170    1.2530 O   0  0  0  0  0  0  0  0  0  0  0  0
    4.7800   -3.0470    0.9600 O   0  0  0  0  0  0  0  0  0  0  0  0
   -5.5680   -0.9090   -1.4800 H   0  0  0  0  0  0  0  0  0  0  0  0
   -6.1310   -2.4280   -0.7290 H   0  0  0  0  0  0  0  0  0  0  0  0
   -7.1000   -1.6300    1.2570 H   0  0  0  0  0  0  0  0  0  0  0  0
   -6.0060   -0.8190    2.5390 H   0  0  0  0  0  0  0  0  0  0  0  0
   -2.8180    1.6250    3.4090 H   0  0  0  0  0  0  0  0  0  0  0  0
   -2.8730   -0.3400   -1.8400 H   0  0  0  0  0  0  0  0  0  0  0  0
   -1.0220   -2.2130   -0.3050 H   0  0  0  0  0  0  0  0  0  0  0  0
   -1.4840   -2.9320   -2.7650 H   0  0  0  0  0  0  0  0  0  0  0  0
   -0.6470    0.5800   -1.0690 H   0  0  0  0  0  0  0  0  0  0  0  0
    3.2650    3.0930   -0.5700 H   0  0  0  0  0  0  0  0  0  0  0  0
   -1.9820    4.8570   -0.8280 H   0  0  0  0  0  0  0  0  0  0  0  0
   -2.5060    3.2760   -0.6120 H   0  0  0  0  0  0  0  0  0  0  0  0
    6.7300   -0.0740   -0.3930 H   0  0  0  0  0  0  0  0  0  0  0  0
    5.5120   -0.8310   -1.4480 H   0  0  0  0  0  0  0  0  0  0  0  0
    5.2600    0.8240   -0.8420 H   0  0  0  0  0  0  0  0  0  0  0  0
    4.7550    1.2050    1.5750 H   0  0  0  0  0  0  0  0  0  0  0  0
    4.6480   -0.1770    2.6910 H   0  0  0  0  0  0  0  0  0  0  0  0
    6.2250    0.3080    2.0240 H   0  0  0  0  0  0  0  0  0  0  0  0
    7.1650   -3.0900    1.4650 H   0  0  0  0  0  0  0  0  0  0  0  0
  1  2  1  0  0  0  0
  1 10  1  0  0  0  0
  2  3  1  0  0  0  0
  2 32  1  0  0  0  0
  2 33  1  0  0  0  0
  3  4  2  0  0  0  0
  3  5  1  0  0  0  0
  4 34  1  0  0  0  0
  4 35  1  0  0  0  0
  5  6  1  0  0  0  0
  5  9  2  0  0  0  0
  6  7  1  0  0  0  0
  6  8  2  0  0  0  0
  7 36  1  0  0  0  0
  9 10  1  0  0  0  0
 10 11  1  0  0  0  0
 10 37  1  0  0  0  0
 11 12  1  0  0  0  0
 11 14  1  0  0  0  0
 11 38  1  0  0  0  0
 12 13  2  0  0  0  0
 12 39  1  0  0  0  0
 14 15  1  0  0  0  0
 14 40  1  0  0  0  0
 15 16  2  0  0  0  0
 15 17  1  0  0  0  0
 17 18  2  0  0  0  0
 17 21  1  0  0  0  0
 18 19  1  0  0  0  0
 19 20  1  0  0  0  0
 20 27  1  0  0  0  0
 20 28  1  0  0  0  0
 20 29  1  0  0  0  0
 21 22  2  0  0  0  0
 21 26  1  0  0  0  0
 22 23  1  0  0  0  0
 22 41  1  0  0  0  0
 23 24  1  0  0  0  0
 24 25  1  0  0  0  0
 24 26  2  0  0  0  0
 25 42  1  0  0  0  0
 25 43  1  0  0  0  0
 27 44  1  0  0  0  0
 27 45  1  0  0  0  0
 27 46  1  0  0  0  0
 28 47  1  0  0  0  0
 28 48  1  0  0  0  0
 28 49  1  0  0  0  0
 29 30  1  0  0  0  0
 29 31  2  0  0  0  0
 30 50  1  0  0  0  0
M  END
> <OPENEYE_ISO_SMILES>
CC(C)(C(=O)O)O/N=C(/c1csc(n1)N)\C(=O)N[C@H](C=O)[C@@H]2N=C(C(=C)CS2)C(=O)O

> <OPENEYE_INCHI>
InChI=1S/C17H19N5O7S2/c1-7-5-30-13(21-10(7)14(25)26)8(4-23)19-12(24)11(9-6-31-16(18)20-9)22-29-17(2,3)15(27)28/h4,6,8,13H,1,5H2,2-3H3,(H2,18,20)(H,19,24)(H,25,26)(H,27,28)/b22-11-/t8-,13-/m1/s1

> <OPENEYE_INCHIKEY>
VEHPZKIFULQYFS-BZXVCXBKSA-N

> <FORMULA>
C17H19N5O7S2

$$$$
