CB4
  -OEChem-07282321083D

 37 37  0     0  0  0  0  0  0999 V2000
   -2.5400   -3.3320    0.2760 B   0  0  0  0  0  0  0  0  0  0  0  0
   -2.6340   -2.5120    1.4320 O   0  0  0  0  0  0  0  0  0  0  0  0
   -2.9470   -4.6910    0.3350 O   0  0  0  0  0  0  0  0  0  0  0  0
   -1.9860   -2.7360   -1.0670 C   0  0  0  0  0  0  0  0  0  0  0  0
   -1.6380   -1.3270   -0.8680 N   0  0  0  0  0  0  0  0  0  0  0  0
   -0.3710   -0.9820   -0.5670 C   0  0  0  0  0  0  0  0  0  0  0  0
    0.5030   -1.8260   -0.5580 O   0  0  0  0  0  0  0  0  0  0  0  0
   -0.0430    0.4270   -0.2470 C   0  0  0  0  0  0  0  0  0  0  0  0
    1.1990    0.7870   -0.0860 N   0  0  0  0  0  0  0  0  0  0  0  0
    2.2250   -0.1900   -0.0860 O   0  0  0  0  0  0  0  0  0  0  0  0
    3.4580    0.5060    0.1090 C   0  0  0  0  0  0  0  0  0  0  0  0
   -1.1250    1.4260   -0.1100 C   0  0  0  0  0  0  0  0  0  0  0  0
   -0.8290    2.7590   -0.0090 C   0  0  0  0  0  0  0  0  0  0  0  0
   -2.4700    3.4550    0.1270 S   0  0  0  0  0  0  0  0  0  0  0  0
   -3.3770    1.9180    0.0370 C   0  0  0  0  0  0  0  0  0  0  0  0
   -4.7440    1.7040    0.0820 N   0  0  0  0  0  0  0  0  0  0  0  0
   -2.4000    1.0400   -0.0890 N   0  0  0  0  0  0  0  0  0  0  0  0
    3.6630    1.5090   -1.0280 C   0  0  0  0  0  0  0  0  0  0  0  0
    3.4170    1.2500    1.4450 C   0  0  0  0  0  0  0  0  0  0  0  0
    4.5960   -0.4820    0.1190 C   0  0  0  0  0  0  0  0  0  0  0  0
    4.3740   -1.6610   -0.0270 O   0  0  0  0  0  0  0  0  0  0  0  0
    5.8560   -0.0530    0.2890 O   0  0  0  0  0  0  0  0  0  0  0  0
   -2.3110   -1.6360    1.1800 H   0  0  0  0  0  0  0  0  0  0  0  0
   -3.2510   -4.8530    1.2380 H   0  0  0  0  0  0  0  0  0  0  0  0
   -2.7490   -2.8160   -1.8420 H   0  0  0  0  0  0  0  0  0  0  0  0
   -1.0990   -3.2900   -1.3720 H   0  0  0  0  0  0  0  0  0  0  0  0
   -2.3200   -0.6420   -0.9540 H   0  0  0  0  0  0  0  0  0  0  0  0
    0.1310    3.2540   -0.0110 H   0  0  0  0  0  0  0  0  0  0  0  0
   -5.3500    2.4570    0.1750 H   0  0  0  0  0  0  0  0  0  0  0  0
   -5.0970    0.8030    0.0200 H   0  0  0  0  0  0  0  0  0  0  0  0
    4.6030    2.0390   -0.8790 H   0  0  0  0  0  0  0  0  0  0  0  0
    3.6920    0.9780   -1.9800 H   0  0  0  0  0  0  0  0  0  0  0  0
    2.8400    2.2230   -1.0350 H   0  0  0  0  0  0  0  0  0  0  0  0
    2.5940    1.9650    1.4380 H   0  0  0  0  0  0  0  0  0  0  0  0
    3.2710    0.5350    2.2550 H   0  0  0  0  0  0  0  0  0  0  0  0
    4.3580    1.7810    1.5940 H   0  0  0  0  0  0  0  0  0  0  0  0
    6.5860   -0.6870    0.2950 H   0  0  0  0  0  0  0  0  0  0  0  0
  1  2  1  0  0  0  0
  1  3  1  0  0  0  0
  1  4  1  0  0  0  0
  2 23  1  0  0  0  0
  3 24  1  0  0  0  0
  4  5  1  0  0  0  0
  4 25  1  0  0  0  0
  4 26  1  0  0  0  0
  5  6  1  0  0  0  0
  5 27  1  0  0  0  0
  6  7  2  0  0  0  0
  6  8  1  0  0  0  0
  8  9  2  0  0  0  0
  8 12  1  0  0  0  0
  9 10  1  0  0  0  0
 10 11  1  0  0  0  0
 11 18  1  0  0  0  0
 11 19  1  0  0  0  0
 11 20  1  0  0  0  0
 12 13  2  0  0  0  0
 12 17  1  0  0  0  0
 13 14  1  0  0  0  0
 13 28  1  0  0  0  0
 14 15  1  0  0  0  0
 15 16  1  0  0  0  0
 15 17  2  0  0  0  0
 16 29  1  0  0  0  0
 16 30  1  0  0  0  0
 18 31  1  0  0  0  0
 18 32  1  0  0  0  0
 18 33  1  0  0  0  0
 19 34  1  0  0  0  0
 19 35  1  0  0  0  0
 19 36  1  0  0  0  0
 20 21  2  0  0  0  0
 20 22  1  0  0  0  0
 22 37  1  0  0  0  0
M  END
> <OPENEYE_ISO_SMILES>
B(CNC(=O)/C(=N\OC(C)(C)C(=O)O)/c1csc(n1)N)(O)O

> <OPENEYE_INCHI>
InChI=1S/C10H15BN4O6S/c1-10(2,8(17)18)21-15-6(5-3-22-9(12)14-5)7(16)13-4-11(19)20/h3,19-20H,4H2,1-2H3,(H2,12,14)(H,13,16)(H,17,18)/b15-6-

> <OPENEYE_INCHIKEY>
ZECCQELUYUPTSB-UUASQNMZSA-N

> <FORMULA>
C10H15BN4O6S

$$$$
