CB9
  -OEChem-07282321083D

 46 47  0     1  0  0  0  0  0999 V2000
   -0.6720   -2.2880    0.4700 C   0  0  0  0  0  0  0  0  0  0  0  0
    0.5130   -0.2870   -0.2240 N   0  0  0  0  0  0  0  0  0  0  0  0
    0.0120   -2.8560   -0.3460 O   0  0  0  0  0  0  0  0  0  0  0  0
   -0.5200   -0.8030    0.6770 C   0  0  1  0  0  0  0  0  0  0  0  0
   -1.8500   -0.1070    0.3790 C   0  0  2  0  0  0  0  0  0  0  0  0
   -5.1420   -1.4720   -1.3420 C   0  0  0  0  0  0  0  0  0  0  0  0
   -4.7550    1.0130   -1.3740 C   0  0  0  0  0  0  0  0  0  0  0  0
   -3.8780    1.8280    1.6260 O   0  0  0  0  0  0  0  0  0  0  0  0
    1.6850    2.2100   -0.5360 O   0  0  0  0  0  0  0  0  0  0  0  0
    2.1220   -0.8140    1.2100 O   0  0  0  0  0  0  0  0  0  0  0  0
   -5.9890    1.3910    1.1380 O   0  0  0  0  0  0  0  0  0  0  0  0
    3.4550    2.3410   -1.8540 O   0  0  0  0  0  0  0  0  0  0  0  0
    6.7140   -0.3060    1.0130 C   0  0  0  0  0  0  0  0  0  0  0  0
    6.4350   -0.9140   -0.1960 C   0  0  0  0  0  0  0  0  0  0  0  0
    5.7500    0.4610    1.6410 C   0  0  0  0  0  0  0  0  0  0  0  0
    5.1920   -0.7530   -0.7790 C   0  0  0  0  0  0  0  0  0  0  0  0
    4.5080    0.6220    1.0570 C   0  0  0  0  0  0  0  0  0  0  0  0
   -2.9300   -0.6050    1.2770 N   0  0  0  0  0  0  0  0  0  0  0  0
   -2.5070   -0.6090   -1.2660 S   0  0  0  0  0  0  0  0  0  0  0  0
   -4.6930    1.0470    1.1940 C   0  0  0  0  0  0  0  0  0  0  0  0
    2.6270    1.6550   -1.0500 C   0  0  0  0  0  0  0  0  0  0  0  0
    1.8100   -0.3400    0.1380 C   0  0  0  0  0  0  0  0  0  0  0  0
    4.2280    0.0150   -0.1530 C   0  0  0  0  0  0  0  0  0  0  0  0
   -4.2530   -0.3130    0.7170 C   0  0  1  0  0  0  0  0  0  0  0  0
    2.8730    0.1910   -0.7890 C   0  0  2  0  0  0  0  0  0  0  0  0
   -4.2680   -0.3290   -0.8230 C   0  0  0  0  0  0  0  0  0  0  0  0
   -1.3960   -2.8420    1.0480 H   0  0  0  0  0  0  0  0  0  0  0  0
    0.2640    0.0920   -1.0810 H   0  0  0  0  0  0  0  0  0  0  0  0
   -0.2320   -0.6080    1.7100 H   0  0  0  0  0  0  0  0  0  0  0  0
   -1.7490    0.9760    0.4490 H   0  0  0  0  0  0  0  0  0  0  0  0
   -5.1060   -1.4920   -2.4310 H   0  0  0  0  0  0  0  0  0  0  0  0
   -4.7720   -2.4200   -0.9490 H   0  0  0  0  0  0  0  0  0  0  0  0
   -6.1700   -1.3210   -1.0150 H   0  0  0  0  0  0  0  0  0  0  0  0
   -5.7800    1.1880   -1.0480 H   0  0  0  0  0  0  0  0  0  0  0  0
   -4.1140    1.8120   -1.0040 H   0  0  0  0  0  0  0  0  0  0  0  0
   -4.7200    0.9930   -2.4640 H   0  0  0  0  0  0  0  0  0  0  0  0
   -6.2230    2.2740    1.4550 H   0  0  0  0  0  0  0  0  0  0  0  0
    3.2560    3.2780   -1.9910 H   0  0  0  0  0  0  0  0  0  0  0  0
    7.6840   -0.4350    1.4710 H   0  0  0  0  0  0  0  0  0  0  0  0
    7.1880   -1.5130   -0.6860 H   0  0  0  0  0  0  0  0  0  0  0  0
    5.9690    0.9360    2.5860 H   0  0  0  0  0  0  0  0  0  0  0  0
    4.9730   -1.2270   -1.7250 H   0  0  0  0  0  0  0  0  0  0  0  0
    3.7550    1.2220    1.5470 H   0  0  0  0  0  0  0  0  0  0  0  0
   -2.8230   -1.5920    1.4570 H   0  0  0  0  0  0  0  0  0  0  0  0
   -4.9610   -1.0580    1.0810 H   0  0  0  0  0  0  0  0  0  0  0  0
    2.8400   -0.3570   -1.7310 H   0  0  0  0  0  0  0  0  0  0  0  0
  1  3  2  0  0  0  0
  1  4  1  0  0  0  0
  2  4  1  0  0  0  0
  2 22  1  0  0  0  0
  4  5  1  0  0  0  0
  5 18  1  0  0  0  0
  5 19  1  0  0  0  0
  6 26  1  0  0  0  0
  7 26  1  0  0  0  0
  8 20  2  0  0  0  0
  9 21  2  0  0  0  0
 10 22  2  0  0  0  0
 11 20  1  0  0  0  0
 12 21  1  0  0  0  0
 13 14  2  0  0  0  0
 13 15  1  0  0  0  0
 14 16  1  0  0  0  0
 15 17  2  0  0  0  0
 16 23  2  0  0  0  0
 17 23  1  0  0  0  0
 18 24  1  0  0  0  0
 19 26  1  0  0  0  0
 20 24  1  0  0  0  0
 21 25  1  0  0  0  0
 22 25  1  0  0  0  0
 23 25  1  0  0  0  0
 24 26  1  0  0  0  0
  1 27  1  0  0  0  0
  2 28  1  0  0  0  0
  4 29  1  0  0  0  0
  5 30  1  0  0  0  0
  6 31  1  0  0  0  0
  6 32  1  0  0  0  0
  6 33  1  0  0  0  0
  7 34  1  0  0  0  0
  7 35  1  0  0  0  0
  7 36  1  0  0  0  0
 11 37  1  0  0  0  0
 12 38  1  0  0  0  0
 13 39  1  0  0  0  0
 14 40  1  0  0  0  0
 15 41  1  0  0  0  0
 16 42  1  0  0  0  0
 17 43  1  0  0  0  0
 18 44  1  0  0  0  0
 24 45  1  0  0  0  0
 25 46  1  0  0  0  0
M  END
> <OPENEYE_ISO_SMILES>
CC1([C@@H](N[C@H](S1)[C@@H](C=O)NC(=O)[C@H](c2ccccc2)C(=O)O)C(=O)O)C

> <OPENEYE_INCHI>
InChI=1S/C17H20N2O6S/c1-17(2)12(16(24)25)19-14(26-17)10(8-20)18-13(21)11(15(22)23)9-6-4-3-5-7-9/h3-8,10-12,14,19H,1-2H3,(H,18,21)(H,22,23)(H,24,25)/t10-,11+,12+,14-/m1/s1

> <OPENEYE_INCHIKEY>
YABPSSAFCROUQF-OWTLIXCDSA-N

> <FORMULA>
C17H20N2O6S

$$$$
