CD6
  -OEChem-07282321083D

 39 40  0     1  0  0  0  0  0999 V2000
   -5.2930    1.1500    0.8170 C   0  0  0  0  0  0  0  0  0  0  0  0
   -1.8660    3.0170   -0.6220 O   0  0  0  0  0  0  0  0  0  0  0  0
    2.0910   -0.7190    0.8110 O   0  0  0  0  0  0  0  0  0  0  0  0
    0.7590   -3.3430   -0.7340 O   0  0  0  0  0  0  0  0  0  0  0  0
   -4.0380    3.0740   -0.1770 O   0  0  0  0  0  0  0  0  0  0  0  0
    6.3880    0.9830    0.9590 C   0  0  0  0  0  0  0  0  0  0  0  0
    6.2280   -0.1680    0.2100 C   0  0  0  0  0  0  0  0  0  0  0  0
    5.3730    1.9200    1.0120 C   0  0  0  0  0  0  0  0  0  0  0  0
    5.0540   -0.3810   -0.4880 C   0  0  0  0  0  0  0  0  0  0  0  0
    4.2010    1.7100    0.3090 C   0  0  0  0  0  0  0  0  0  0  0  0
   -4.5630   -1.1350    0.2270 C   0  0  0  0  0  0  0  0  0  0  0  0
    2.7590    0.3250   -1.1970 C   0  0  0  0  0  0  0  0  0  0  0  0
   -2.0230    0.2870   -0.4550 N   0  0  0  0  0  0  0  0  0  0  0  0
    0.5590   -0.7300   -0.7940 N   0  0  0  0  0  0  0  0  0  0  0  0
   -3.0000   -1.9210    0.7370 S   0  0  0  0  0  0  0  0  0  0  0  0
   -4.3470    0.3630    0.3140 C   0  0  0  0  0  0  0  0  0  0  0  0
   -3.0300    2.4130   -0.3200 C   0  0  0  0  0  0  0  0  0  0  0  0
    1.7800   -0.4120   -0.3200 C   0  0  0  0  0  0  0  0  0  0  0  0
   -0.1310   -2.9280   -0.0310 C   0  0  0  0  0  0  0  0  0  0  0  0
   -3.0820    0.9350   -0.1630 C   0  0  0  0  0  0  0  0  0  0  0  0
    4.0390    0.5570   -0.4360 C   0  0  0  0  0  0  0  0  0  0  0  0
   -1.8190   -1.1520   -0.4100 C   0  0  2  0  0  0  0  0  0  0  0  0
   -0.3930   -1.4470    0.0590 C   0  0  2  0  0  0  0  0  0  0  0  0
   -6.2640    0.7420    1.0580 H   0  0  0  0  0  0  0  0  0  0  0  0
   -5.0890    2.1960    0.9900 H   0  0  0  0  0  0  0  0  0  0  0  0
   -1.8820    3.9800   -0.7140 H   0  0  0  0  0  0  0  0  0  0  0  0
    7.3030    1.1470    1.5080 H   0  0  0  0  0  0  0  0  0  0  0  0
    7.0210   -0.9000    0.1690 H   0  0  0  0  0  0  0  0  0  0  0  0
    5.4960    2.8170    1.6010 H   0  0  0  0  0  0  0  0  0  0  0  0
    4.9290   -1.2800   -1.0730 H   0  0  0  0  0  0  0  0  0  0  0  0
    3.4090    2.4430    0.3490 H   0  0  0  0  0  0  0  0  0  0  0  0
   -4.8060   -1.4180   -0.7980 H   0  0  0  0  0  0  0  0  0  0  0  0
   -5.3690   -1.4350    0.8960 H   0  0  0  0  0  0  0  0  0  0  0  0
    2.9680   -0.2680   -2.0870 H   0  0  0  0  0  0  0  0  0  0  0  0
    2.3330    1.2840   -1.4920 H   0  0  0  0  0  0  0  0  0  0  0  0
    0.3100   -0.4850   -1.6990 H   0  0  0  0  0  0  0  0  0  0  0  0
   -0.7390   -3.6190    0.5340 H   0  0  0  0  0  0  0  0  0  0  0  0
   -1.9620   -1.5680   -1.4070 H   0  0  0  0  0  0  0  0  0  0  0  0
   -0.2750   -1.1190    1.0910 H   0  0  0  0  0  0  0  0  0  0  0  0
  1 16  2  0  0  0  0
  1 24  1  0  0  0  0
  1 25  1  0  0  0  0
  2 17  1  0  0  0  0
  2 26  1  0  0  0  0
  3 18  2  0  0  0  0
  4 19  2  0  0  0  0
  5 17  2  0  0  0  0
  6  7  2  0  0  0  0
  6  8  1  0  0  0  0
  6 27  1  0  0  0  0
  7  9  1  0  0  0  0
  7 28  1  0  0  0  0
  8 10  2  0  0  0  0
  8 29  1  0  0  0  0
  9 21  2  0  0  0  0
  9 30  1  0  0  0  0
 10 21  1  0  0  0  0
 10 31  1  0  0  0  0
 11 15  1  0  0  0  0
 11 16  1  0  0  0  0
 11 32  1  0  0  0  0
 11 33  1  0  0  0  0
 12 18  1  0  0  0  0
 12 21  1  0  0  0  0
 12 34  1  0  0  0  0
 12 35  1  0  0  0  0
 13 22  1  0  0  0  0
 13 20  2  0  0  0  0
 14 23  1  0  0  0  0
 14 18  1  0  0  0  0
 14 36  1  0  0  0  0
 15 22  1  0  0  0  0
 16 20  1  0  0  0  0
 17 20  1  0  0  0  0
 19 23  1  0  0  0  0
 19 37  1  0  0  0  0
 22 23  1  0  0  0  0
 22 38  1  0  0  0  0
 23 39  1  0  0  0  0
M  END
> <OPENEYE_ISO_SMILES>
C=C1CS[C@@H](N=C1C(=O)O)[C@@H](C=O)NC(=O)Cc2ccccc2

> <OPENEYE_INCHI>
InChI=1S/C16H16N2O4S/c1-10-9-23-15(18-14(10)16(21)22)12(8-19)17-13(20)7-11-5-3-2-4-6-11/h2-6,8,12,15H,1,7,9H2,(H,17,20)(H,21,22)/t12-,15-/m1/s1

> <OPENEYE_INCHIKEY>
ISCTZDPSWLBTMN-IUODEOHRSA-N

> <FORMULA>
C16H16N2O4S

$$$$
