CD7
  -OEChem-07282321083D

 44 45  0     1  0  0  0  0  0999 V2000
   -4.3090   -3.0950   -0.5690 O   0  0  0  0  0  0  0  0  0  0  0  0
   -3.8410   -1.9910   -0.3870 C   0  0  0  0  0  0  0  0  0  0  0  0
   -4.6200   -0.8990   -0.5170 N   0  0  0  0  0  0  0  0  0  0  0  0
   -6.0100   -1.0190   -0.9870 C   0  0  0  0  0  0  0  0  0  0  0  0
   -6.8860   -0.2320   -0.0350 C   0  0  0  0  0  0  0  0  0  0  0  0
   -7.9760   -0.7250    0.4190 N   0  0  0  0  0  0  0  0  0  0  0  0
   -6.4330    1.1560    0.3630 C   0  0  0  0  0  0  0  0  0  0  0  0
   -4.9940    1.0720    0.8840 C   0  0  0  0  0  0  0  0  0  0  0  0
   -4.1030    0.4350   -0.1860 C   0  0  1  0  0  0  0  0  0  0  0  0
   -2.6980    0.3120    0.3450 C   0  0  0  0  0  0  0  0  0  0  0  0
   -2.4420   -0.5110    1.1990 O   0  0  0  0  0  0  0  0  0  0  0  0
   -1.7260    1.1170   -0.1280 N   0  0  0  0  0  0  0  0  0  0  0  0
   -0.4200    1.0030    0.3660 N   0  0  0  0  0  0  0  0  0  0  0  0
    0.5520    1.8080   -0.1070 C   0  0  0  0  0  0  0  0  0  0  0  0
    0.2960    2.6310   -0.9600 O   0  0  0  0  0  0  0  0  0  0  0  0
    1.9570    1.6860    0.4240 C   0  0  2  0  0  0  0  0  0  0  0  0
    2.8930    2.7060   -0.2630 C   0  0  0  0  0  0  0  0  0  0  0  0
    4.2140    1.9490   -0.4930 C   0  0  0  0  0  0  0  0  0  0  0  0
    4.0380    0.5900    0.0630 N   0  0  1  0  0  0  0  0  0  0  0  0
    2.5770    0.3230    0.0250 C   0  0  0  0  0  0  0  0  0  0  0  0
   -2.8010   -1.8840   -0.1160 H   0  0  0  0  0  0  0  0  0  0  0  0
   -6.0960   -0.6080   -1.9940 H   0  0  0  0  0  0  0  0  0  0  0  0
   -6.3110   -2.0660   -0.9880 H   0  0  0  0  0  0  0  0  0  0  0  0
   -8.5260   -0.2080    1.0290 H   0  0  0  0  0  0  0  0  0  0  0  0
   -6.4710    1.8160   -0.5030 H   0  0  0  0  0  0  0  0  0  0  0  0
   -7.0840    1.5420    1.1480 H   0  0  0  0  0  0  0  0  0  0  0  0
   -4.6300    2.0740    1.1110 H   0  0  0  0  0  0  0  0  0  0  0  0
   -4.9700    0.4630    1.7870 H   0  0  0  0  0  0  0  0  0  0  0  0
   -4.1010    1.0570   -1.0810 H   0  0  0  0  0  0  0  0  0  0  0  0
   -1.9310    1.7760   -0.8100 H   0  0  0  0  0  0  0  0  0  0  0  0
   -0.2150    0.3450    1.0480 H   0  0  0  0  0  0  0  0  0  0  0  0
    1.9720    1.8170    1.5060 H   0  0  0  0  0  0  0  0  0  0  0  0
    2.4700    3.0260   -1.2150 H   0  0  0  0  0  0  0  0  0  0  0  0
    3.0570    3.5660    0.3860 H   0  0  0  0  0  0  0  0  0  0  0  0
    4.4260    1.8890   -1.5610 H   0  0  0  0  0  0  0  0  0  0  0  0
    5.0290    2.4610    0.0190 H   0  0  0  0  0  0  0  0  0  0  0  0
    4.7730   -0.3990   -0.7260 O   0  0  0  0  0  0  0  0  0  0  0  0
    2.3080   -0.4480    0.7460 H   0  0  0  0  0  0  0  0  0  0  0  0
    2.2650    0.0380   -0.9800 H   0  0  0  0  0  0  0  0  0  0  0  0
    5.8300   -1.1580    0.0630 S   0  0  0  0  0  0  0  0  0  0  0  0
    6.5700   -1.9160   -0.8850 O   0  0  0  0  0  0  0  0  0  0  0  0
    6.4280   -0.2160    0.9420 O   0  0  0  0  0  0  0  0  0  0  0  0
    5.1010   -2.1640    0.9420 O   0  0  0  0  0  0  0  0  0  0  0  0
    5.6860   -2.7040    1.4900 H   0  0  0  0  0  0  0  0  0  0  0  0
 16 20  1  0  0  0  0
 19 20  1  0  0  0  0
 16 17  1  0  0  0  0
 14 16  1  0  0  0  0
 18 19  1  0  0  0  0
 17 18  1  0  0  0  0
 10 11  2  0  0  0  0
 14 15  2  0  0  0  0
 13 14  1  0  0  0  0
 12 13  1  0  0  0  0
 10 12  1  0  0  0  0
  9 10  1  0  0  0  0
  3  4  1  0  0  0  0
  4  5  1  0  0  0  0
  3  9  1  0  0  0  0
  2  3  1  0  0  0  0
  8  9  1  0  0  0  0
  1  2  2  0  0  0  0
  5  6  2  0  0  0  0
  5  7  1  0  0  0  0
  7  8  1  0  0  0  0
  2 21  1  0  0  0  0
  4 22  1  0  0  0  0
  4 23  1  0  0  0  0
  6 24  1  0  0  0  0
  7 25  1  0  0  0  0
  7 26  1  0  0  0  0
  8 27  1  0  0  0  0
  8 28  1  0  0  0  0
  9 29  1  0  0  0  0
 12 30  1  0  0  0  0
 13 31  1  0  0  0  0
 16 32  1  0  0  0  0
 17 33  1  0  0  0  0
 17 34  1  0  0  0  0
 18 35  1  0  0  0  0
 18 36  1  0  0  0  0
 19 37  1  0  0  0  0
 20 38  1  0  0  0  0
 20 39  1  0  0  0  0
 37 40  1  0  0  0  0
 40 41  2  0  0  0  0
 40 42  2  0  0  0  0
 40 43  1  0  0  0  0
 43 44  1  0  0  0  0
M  END
> <OPENEYE_ISO_SMILES>
[H]/N=C/1\CC[C@H](N(C1)C=O)C(=O)NNC(=O)[C@@H]2CC[N@@](C2)OS(=O)(=O)O

> <OPENEYE_INCHI>
InChI=1S/C12H19N5O7S/c13-9-1-2-10(16(6-9)7-18)12(20)15-14-11(19)8-3-4-17(5-8)24-25(21,22)23/h7-8,10,13H,1-6H2,(H,14,19)(H,15,20)(H,21,22,23)/b13-9+/t8-,10+/m1/s1

> <OPENEYE_INCHIKEY>
APRDZKRWJZJQAT-HEBFYPQVSA-N

> <FORMULA>
C12H19N5O7S

$$$$
