REMARK  7 active torsions:
REMARK  status: ('A' for Active; 'I' for Inactive)
REMARK    1  A    between atoms: C_2  and  N_3 
REMARK    2  A    between atoms: C_9  and  C_10 
REMARK       I    between atoms: C_10  and  N_12 
REMARK    3  A    between atoms: N_12  and  N_13 
REMARK       I    between atoms: N_13  and  C_14 
REMARK    4  A    between atoms: C_14  and  C_16 
REMARK    5  A    between atoms: N_19  and  O_24 
REMARK    6  A    between atoms: O_24  and  S_25 
REMARK    7  A    between atoms: S_25  and  O_28 
ROOT
HETATM    1  N   UNL     1      -0.420   1.003   0.366  1.00  0.00    -0.267 N 
HETATM    2  C   UNL     1       0.552   1.808  -0.107  1.00  0.00     0.241 C 
HETATM    3  O   UNL     1       0.296   2.631  -0.960  1.00  0.00    -0.271 OA
HETATM    4  H   UNL     1      -0.215   0.345   1.048  1.00  0.00     0.190 HD
ENDROOT
BRANCH   1   5
HETATM    5  N   UNL     1      -1.726   1.117  -0.128  1.00  0.00    -0.266 N 
HETATM    6  C   UNL     1      -2.698   0.312   0.345  1.00  0.00     0.259 C 
HETATM    7  O   UNL     1      -2.442  -0.511   1.199  1.00  0.00    -0.269 OA
HETATM    8  H   UNL     1      -1.931   1.776  -0.810  1.00  0.00     0.190 HD
BRANCH   6   9
HETATM    9  C   UNL     1      -4.103   0.435  -0.186  1.00  0.00     0.181 C 
HETATM   10  N   UNL     1      -4.620  -0.899  -0.517  1.00  0.00    -0.340 N 
HETATM   11  C   UNL     1      -6.010  -1.019  -0.987  1.00  0.00     0.180 C 
HETATM   12  C   UNL     1      -6.886  -0.232  -0.035  1.00  0.00     0.021 C 
HETATM   13  N   UNL     1      -7.976  -0.725   0.419  1.00  0.00    -0.307 NA
HETATM   14  C   UNL     1      -6.433   1.156   0.363  1.00  0.00     0.058 C 
HETATM   15  H   UNL     1      -8.526  -0.208   1.029  1.00  0.00     0.186 HD
HETATM   16  C   UNL     1      -4.994   1.072   0.884  1.00  0.00     0.041 C 
BRANCH  10  17
HETATM   17  C   UNL     1      -3.841  -1.991  -0.387  1.00  0.00     0.352 C 
HETATM   18  O   UNL     1      -4.309  -3.095  -0.569  1.00  0.00    -0.284 OA
ENDBRANCH  10  17
ENDBRANCH   6   9
ENDBRANCH   1   5
BRANCH   2  19
HETATM   19  C   UNL     1       1.957   1.686   0.424  1.00  0.00     0.096 C 
HETATM   20  C   UNL     1       2.577   0.323   0.025  1.00  0.00     0.136 C 
HETATM   21  N   UNL     1       4.038   0.590   0.063  1.00  0.00    -0.177 NA
HETATM   22  C   UNL     1       4.214   1.949  -0.493  1.00  0.00     0.123 C 
HETATM   23  C   UNL     1       2.893   2.706  -0.263  1.00  0.00     0.032 C 
BRANCH  21  24
HETATM   24  O   UNL     1       4.773  -0.399  -0.726  1.00  0.00    -0.165 OA
BRANCH  24  25
HETATM   25  S   UNL     1       5.830  -1.158   0.063  1.00  0.00     0.258 S 
HETATM   26  O   UNL     1       6.570  -1.916  -0.885  1.00  0.00    -0.578 OA
HETATM   27  O   UNL     1       6.428  -0.216   0.942  1.00  0.00    -0.578 OA
BRANCH  25  28
HETATM   28  O   UNL     1       5.101  -2.164   0.942  1.00  0.00    -0.273 OA
HETATM   29  H   UNL     1       5.686  -2.704   1.490  1.00  0.00     0.234 HD
ENDBRANCH  25  28
ENDBRANCH  24  25
ENDBRANCH  21  24
ENDBRANCH   2  19
TORSDOF 7
