CD8
  -OEChem-07282321083D

 40 41  0     1  0  0  0  0  0999 V2000
    4.7920   -1.3830   -0.4200 C   0  0  0  0  0  0  0  0  0  0  0  0
   -0.1310    2.2120    2.7660 C   0  0  0  0  0  0  0  0  0  0  0  0
    3.3420   -3.2970    0.2860 O   0  0  0  0  0  0  0  0  0  0  0  0
   -1.5590    0.8990   -1.5610 O   0  0  0  0  0  0  0  0  0  0  0  0
   -1.4090    3.1610   -0.2870 O   0  0  0  0  0  0  0  0  0  0  0  0
    1.2780   -3.0490    1.0550 O   0  0  0  0  0  0  0  0  0  0  0  0
   -5.4290   -1.8560   -0.1050 C   0  0  0  0  0  0  0  0  0  0  0  0
   -5.0560   -1.3600   -1.3420 C   0  0  0  0  0  0  0  0  0  0  0  0
   -4.6540   -1.5990    1.0120 C   0  0  0  0  0  0  0  0  0  0  0  0
   -3.9080   -0.6070   -1.4690 C   0  0  0  0  0  0  0  0  0  0  0  0
   -3.5030   -0.8460    0.8990 C   0  0  0  0  0  0  0  0  0  0  0  0
    3.6950    0.5880   -1.4290 C   0  0  0  0  0  0  0  0  0  0  0  0
    1.3020   -0.5340   -0.0300 N   0  0  0  0  0  0  0  0  0  0  0  0
   -1.1320    0.7150    0.6110 N   0  0  0  0  0  0  0  0  0  0  0  0
    0.7120    1.6410    1.7630 O   0  0  0  0  0  0  0  0  0  0  0  0
    2.6050    1.7630   -0.5600 S   0  0  0  0  0  0  0  0  0  0  0  0
    3.6700   -0.7010   -0.6310 C   0  0  0  0  0  0  0  0  0  0  0  0
    2.3720   -2.5820    0.4270 C   0  0  0  0  0  0  0  0  0  0  0  0
   -1.8890    0.4630   -0.4750 C   0  0  0  0  0  0  0  0  0  0  0  0
   -0.2590    2.8830   -0.0440 C   0  0  0  0  0  0  0  0  0  0  0  0
    2.3940   -1.1890   -0.0940 C   0  0  0  0  0  0  0  0  0  0  0  0
   -3.1210   -0.3440   -0.3460 C   0  0  0  0  0  0  0  0  0  0  0  0
    1.0510    0.8240   -0.4860 C   0  0  2  0  0  0  0  0  0  0  0  0
    0.0890    1.5140    0.4830 C   0  0  2  0  0  0  0  0  0  0  0  0
    5.7060   -1.0850   -0.9120 H   0  0  0  0  0  0  0  0  0  0  0  0
    4.7910   -2.2320    0.2480 H   0  0  0  0  0  0  0  0  0  0  0  0
   -0.5100    3.1730    2.4170 H   0  0  0  0  0  0  0  0  0  0  0  0
   -0.9680    1.5420    2.9630 H   0  0  0  0  0  0  0  0  0  0  0  0
    0.4410    2.3580    3.6820 H   0  0  0  0  0  0  0  0  0  0  0  0
    1.3110   -3.9600    1.3770 H   0  0  0  0  0  0  0  0  0  0  0  0
   -6.3310   -2.4420   -0.0100 H   0  0  0  0  0  0  0  0  0  0  0  0
   -5.6650   -1.5650   -2.2100 H   0  0  0  0  0  0  0  0  0  0  0  0
   -4.9510   -1.9880    1.9750 H   0  0  0  0  0  0  0  0  0  0  0  0
   -3.6180   -0.2210   -2.4350 H   0  0  0  0  0  0  0  0  0  0  0  0
   -2.8990   -0.6460    1.7710 H   0  0  0  0  0  0  0  0  0  0  0  0
    3.3230    0.4090   -2.4370 H   0  0  0  0  0  0  0  0  0  0  0  0
    4.7100    0.9820   -1.4700 H   0  0  0  0  0  0  0  0  0  0  0  0
   -1.3960    0.3670    1.4770 H   0  0  0  0  0  0  0  0  0  0  0  0
    0.5190    3.6140   -0.2030 H   0  0  0  0  0  0  0  0  0  0  0  0
    0.6000    0.7940   -1.4780 H   0  0  0  0  0  0  0  0  0  0  0  0
  1 17  2  0  0  0  0
  1 25  1  0  0  0  0
  1 26  1  0  0  0  0
  2 15  1  0  0  0  0
  2 27  1  0  0  0  0
  2 28  1  0  0  0  0
  2 29  1  0  0  0  0
  3 18  2  0  0  0  0
  4 19  2  0  0  0  0
  5 20  2  0  0  0  0
  6 18  1  0  0  0  0
  6 30  1  0  0  0  0
  7  9  2  0  0  0  0
  7  8  1  0  0  0  0
  7 31  1  0  0  0  0
  8 10  2  0  0  0  0
  8 32  1  0  0  0  0
  9 11  1  0  0  0  0
  9 33  1  0  0  0  0
 10 22  1  0  0  0  0
 10 34  1  0  0  0  0
 11 22  2  0  0  0  0
 11 35  1  0  0  0  0
 12 17  1  0  0  0  0
 12 16  1  0  0  0  0
 12 36  1  0  0  0  0
 12 37  1  0  0  0  0
 13 21  2  0  0  0  0
 13 23  1  0  0  0  0
 14 19  1  0  0  0  0
 14 24  1  0  0  0  0
 14 38  1  0  0  0  0
 15 24  1  0  0  0  0
 16 23  1  0  0  0  0
 17 21  1  0  0  0  0
 18 21  1  0  0  0  0
 19 22  1  0  0  0  0
 20 24  1  0  0  0  0
 20 39  1  0  0  0  0
 23 24  1  0  0  0  0
 23 40  1  0  0  0  0
M  END
> <OPENEYE_ISO_SMILES>
CO[C@@](C=O)([C@@H]1N=C(C(=C)CS1)C(=O)O)NC(=O)c2ccccc2

> <OPENEYE_INCHI>
InChI=1S/C16H16N2O5S/c1-10-8-24-15(17-12(10)14(21)22)16(9-19,23-2)18-13(20)11-6-4-3-5-7-11/h3-7,9,15H,1,8H2,2H3,(H,18,20)(H,21,22)/t15-,16+/m1/s1

> <OPENEYE_INCHIKEY>
DDPBNTJUSOYARI-CVEARBPZSA-N

> <FORMULA>
C16H16N2O5S

$$$$
