CED
  -OEChem-07282321083D

 38 39  0     1  0  0  0  0  0999 V2000
   -1.9250   -1.7990    0.2440 S   0  0  0  0  0  0  0  0  0  0  0  0
   -3.5160   -2.0830   -0.5900 C   0  0  0  0  0  0  0  0  0  0  0  0
   -4.3600   -0.8460   -0.4880 C   0  0  0  0  0  0  0  0  0  0  0  0
   -5.8480   -1.0110   -0.6610 C   0  0  0  0  0  0  0  0  0  0  0  0
   -3.9150    0.3680   -0.2610 C   0  0  0  0  0  0  0  0  0  0  0  0
   -4.9260    1.4400   -0.2200 C   0  0  0  0  0  0  0  0  0  0  0  0
   -6.0840    1.1940   -0.4960 O   0  0  0  0  0  0  0  0  0  0  0  0
   -4.5670    2.6930    0.1240 O   0  0  0  0  0  0  0  0  0  0  0  0
   -2.5970    0.7550   -0.0540 N   0  0  0  0  0  0  0  0  0  0  0  0
   -1.4840   -0.1470   -0.3860 C   0  0  1  0  0  0  0  0  0  0  0  0
   -0.1990    0.3410    0.2870 C   0  0  1  0  0  0  0  0  0  0  0  0
   -0.4100    0.4170    1.7770 C   0  0  0  0  0  0  0  0  0  0  0  0
    0.2790   -0.2410    2.5190 O   0  0  0  0  0  0  0  0  0  0  0  0
    0.8900   -0.5940   -0.0050 N   0  0  0  0  0  0  0  0  0  0  0  0
    2.1690   -0.1680    0.0240 C   0  0  0  0  0  0  0  0  0  0  0  0
    2.4170    0.9880    0.2920 O   0  0  0  0  0  0  0  0  0  0  0  0
    3.2900   -1.1300   -0.2760 C   0  0  0  0  0  0  0  0  0  0  0  0
    4.6100   -0.4090   -0.1770 C   0  0  0  0  0  0  0  0  0  0  0  0
    5.3450   -0.2990    0.9300 C   0  0  0  0  0  0  0  0  0  0  0  0
    6.5240    0.4100    0.7790 C   0  0  0  0  0  0  0  0  0  0  0  0
    6.7460    0.8760   -0.4500 C   0  0  0  0  0  0  0  0  0  0  0  0
    5.4200    0.4090   -1.5070 S   0  0  0  0  0  0  0  0  0  0  0  0
   -3.3400   -2.3180   -1.6400 H   0  0  0  0  0  0  0  0  0  0  0  0
   -4.0330   -2.9160   -0.1130 H   0  0  0  0  0  0  0  0  0  0  0  0
   -6.0780   -2.0610   -0.8420 H   0  0  0  0  0  0  0  0  0  0  0  0
   -6.3580   -0.6780    0.2420 H   0  0  0  0  0  0  0  0  0  0  0  0
   -6.1830   -0.4150   -1.5100 H   0  0  0  0  0  0  0  0  0  0  0  0
   -5.2650    3.3620    0.1360 H   0  0  0  0  0  0  0  0  0  0  0  0
   -2.4080    1.6320    0.3140 H   0  0  0  0  0  0  0  0  0  0  0  0
   -1.3470   -0.1860   -1.4660 H   0  0  0  0  0  0  0  0  0  0  0  0
    0.0580    1.3290   -0.0950 H   0  0  0  0  0  0  0  0  0  0  0  0
   -1.1780    1.0610    2.1810 H   0  0  0  0  0  0  0  0  0  0  0  0
    0.6920   -1.5180   -0.2190 H   0  0  0  0  0  0  0  0  0  0  0  0
    3.2680   -1.9490    0.4430 H   0  0  0  0  0  0  0  0  0  0  0  0
    3.1670   -1.5270   -1.2840 H   0  0  0  0  0  0  0  0  0  0  0  0
    5.0430   -0.7310    1.8730 H   0  0  0  0  0  0  0  0  0  0  0  0
    7.2120    0.5740    1.5960 H   0  0  0  0  0  0  0  0  0  0  0  0
    7.6100    1.4500   -0.7520 H   0  0  0  0  0  0  0  0  0  0  0  0
  1  2  1  0  0  0  0
  1 10  1  0  0  0  0
  2  3  1  0  0  0  0
  2 23  1  0  0  0  0
  2 24  1  0  0  0  0
  3  4  1  0  0  0  0
  3  5  2  0  0  0  0
  4 25  1  0  0  0  0
  4 26  1  0  0  0  0
  4 27  1  0  0  0  0
  5  6  1  0  0  0  0
  5  9  1  0  0  0  0
  6  7  2  0  0  0  0
  6  8  1  0  0  0  0
  8 28  1  0  0  0  0
  9 10  1  0  0  0  0
  9 29  1  0  0  0  0
 10 11  1  0  0  0  0
 10 30  1  0  0  0  0
 11 12  1  0  0  0  0
 11 14  1  0  0  0  0
 11 31  1  0  0  0  0
 12 13  2  0  0  0  0
 12 32  1  0  0  0  0
 14 15  1  0  0  0  0
 14 33  1  0  0  0  0
 15 16  2  0  0  0  0
 15 17  1  0  0  0  0
 17 18  1  0  0  0  0
 17 34  1  0  0  0  0
 17 35  1  0  0  0  0
 18 19  2  0  0  0  0
 18 22  1  0  0  0  0
 19 20  1  0  0  0  0
 19 36  1  0  0  0  0
 20 21  2  0  0  0  0
 20 37  1  0  0  0  0
 21 22  1  0  0  0  0
 21 38  1  0  0  0  0
M  END
> <OPENEYE_ISO_SMILES>
CC1=C(N[C@H](SC1)[C@@H](C=O)NC(=O)Cc2cccs2)C(=O)O

> <OPENEYE_INCHI>
InChI=1S/C14H16N2O4S2/c1-8-7-22-13(16-12(8)14(19)20)10(6-17)15-11(18)5-9-3-2-4-21-9/h2-4,6,10,13,16H,5,7H2,1H3,(H,15,18)(H,19,20)/t10-,13-/m1/s1

> <OPENEYE_INCHIKEY>
SFVACKBZMIZHCK-ZWNOBZJWSA-N

> <FORMULA>
C14H16N2O4S2

$$$$
