REMARK  7 active torsions:
REMARK  status: ('A' for Active; 'I' for Inactive)
REMARK    1  A    between atoms: CA_5  and  C_6 
REMARK    2  A    between atoms: C_6  and  OXT_8 
REMARK    3  A    between atoms: C_10  and  CA_11 
REMARK    4  A    between atoms: CA_11  and  C_12 
REMARK    5  A    between atoms: CA_11  and  N_14 
REMARK       I    between atoms: N_14  and  C_15 
REMARK    6  A    between atoms: C_15  and  C_17 
REMARK    7  A    between atoms: C_17  and  C_18 
ROOT
HETATM    1  CA  UNL     1      -0.199   0.341   0.287  1.00  0.00     0.178 C 
ENDROOT
BRANCH   1   2
HETATM    2  C   UNL     1      -1.484  -0.147  -0.386  1.00  0.00     0.173 C 
HETATM    3  S   UNL     1      -1.925  -1.799   0.244  1.00  0.00    -0.137 SA
HETATM    4  C   UNL     1      -3.516  -2.083  -0.590  1.00  0.00     0.112 C 
HETATM    5  C   UNL     1      -4.360  -0.846  -0.488  1.00  0.00    -0.041 C 
HETATM    6  C   UNL     1      -5.848  -1.011  -0.661  1.00  0.00     0.047 C 
HETATM    7  CA  UNL     1      -3.915   0.368  -0.261  1.00  0.00     0.106 C 
HETATM    8  N   UNL     1      -2.597   0.755  -0.054  1.00  0.00    -0.369 N 
HETATM    9  H   UNL     1      -2.408   1.632   0.314  1.00  0.00     0.161 HD
BRANCH   7  10
HETATM   10  C   UNL     1      -4.926   1.440  -0.220  1.00  0.00     0.193 C 
HETATM   11  O   UNL     1      -6.084   1.194  -0.496  1.00  0.00    -0.645 OA
BRANCH  10  12
HETATM   12  OXT UNL     1      -4.567   2.693   0.124  1.00  0.00    -0.772 OA
HETATM   13  HXT UNL     1      -5.265   3.362   0.136  1.00  0.00     0.167 HD
ENDBRANCH  10  12
ENDBRANCH   7  10
ENDBRANCH   1   2
BRANCH   1  14
HETATM   14  C   UNL     1      -0.410   0.417   1.777  1.00  0.00     0.259 C 
HETATM   15  O   UNL     1       0.279  -0.241   2.519  1.00  0.00    -0.305 OA
ENDBRANCH   1  14
BRANCH   1  16
HETATM   16  N   UNL     1       0.890  -0.594  -0.005  1.00  0.00    -0.347 N 
HETATM   17  C   UNL     1       2.169  -0.168   0.024  1.00  0.00     0.223 C 
HETATM   18  O   UNL     1       2.417   0.988   0.292  1.00  0.00    -0.273 OA
HETATM   19  H   UNL     1       0.692  -1.518  -0.219  1.00  0.00     0.163 HD
BRANCH  17  20
HETATM   20  C   UNL     1       3.290  -1.130  -0.276  1.00  0.00     0.148 C 
BRANCH  20  21
HETATM   21  C   UNL     1       4.610  -0.409  -0.177  1.00  0.00    -0.009 A 
HETATM   22  C   UNL     1       5.345  -0.299   0.930  1.00  0.00     0.015 A 
HETATM   23  C   UNL     1       6.524   0.410   0.779  1.00  0.00     0.008 A 
HETATM   24  C   UNL     1       6.746   0.876  -0.450  1.00  0.00     0.050 A 
HETATM   25  S   UNL     1       5.420   0.409  -1.507  1.00  0.00    -0.106 SA
ENDBRANCH  20  21
ENDBRANCH  17  20
ENDBRANCH   1  16
TORSDOF 7
