CEF
  -OEChem-07282321083D

 41 42  0     1  0  0  0  0  0999 V2000
   -3.4720    1.7290    1.0000 S   0  0  0  0  0  0  0  0  0  0  0  0
   -4.7280    0.4100    0.9150 C   0  0  0  0  0  0  0  0  0  0  0  0
   -4.4370   -0.3880   -0.3410 C   0  0  0  0  0  0  0  0  0  0  0  0
   -5.4310   -0.7860   -1.1290 C   0  0  0  0  0  0  0  0  0  0  0  0
   -3.0460   -0.7160   -0.6780 C   0  0  0  0  0  0  0  0  0  0  0  0
   -2.8350   -1.7290   -1.7460 C   0  0  0  0  0  0  0  0  0  0  0  0
   -3.7820   -2.3330   -2.2050 O   0  0  0  0  0  0  0  0  0  0  0  0
   -1.5930   -1.9750   -2.2040 O   0  0  0  0  0  0  0  0  0  0  0  0
   -2.0020   -0.2170   -0.1430 N   0  0  0  0  0  0  0  0  0  0  0  0
   -1.9330    0.7660    0.9270 C   0  0  1  0  0  0  0  0  0  0  0  0
   -0.7570    1.7100    0.6720 C   0  0  1  0  0  0  0  0  0  0  0  0
   -0.5940    2.6380    1.8490 C   0  0  0  0  0  0  0  0  0  0  0  0
    0.4400    2.6440    2.4740 O   0  0  0  0  0  0  0  0  0  0  0  0
    0.4680    0.9270    0.4940 N   0  0  0  0  0  0  0  0  0  0  0  0
    1.4960    1.4360   -0.2140 C   0  0  0  0  0  0  0  0  0  0  0  0
    1.4410    2.5760   -0.6320 O   0  0  0  0  0  0  0  0  0  0  0  0
    2.6930    0.6040   -0.4840 C   0  0  0  0  0  0  0  0  0  0  0  0
    3.6370    1.0550   -1.2610 N   0  0  0  0  0  0  0  0  0  0  0  0
    3.5760    2.3810   -1.7530 O   0  0  0  0  0  0  0  0  0  0  0  0
    4.6760    2.7400   -2.5920 C   0  0  0  0  0  0  0  0  0  0  0  0
    2.8150   -0.7360    0.1280 C   0  0  0  0  0  0  0  0  0  0  0  0
    3.9340   -1.4800    0.0200 C   0  0  0  0  0  0  0  0  0  0  0  0
    3.6750   -2.9950    0.8820 S   0  0  0  0  0  0  0  0  0  0  0  0
    2.0510   -2.4750    1.3170 C   0  0  0  0  0  0  0  0  0  0  0  0
    1.1500   -3.2120    2.0670 N   0  0  0  0  0  0  0  0  0  0  0  0
    1.8290   -1.2930    0.8320 N   0  0  0  0  0  0  0  0  0  0  0  0
   -4.6520   -0.2340    1.7920 H   0  0  0  0  0  0  0  0  0  0  0  0
   -5.7250    0.8470    0.8570 H   0  0  0  0  0  0  0  0  0  0  0  0
   -6.4550   -0.6730   -0.8050 H   0  0  0  0  0  0  0  0  0  0  0  0
   -5.2140   -1.2240   -2.0920 H   0  0  0  0  0  0  0  0  0  0  0  0
   -1.5060   -2.6410   -2.8990 H   0  0  0  0  0  0  0  0  0  0  0  0
   -1.7830    0.2540    1.8780 H   0  0  0  0  0  0  0  0  0  0  0  0
   -0.9480    2.2950   -0.2280 H   0  0  0  0  0  0  0  0  0  0  0  0
   -1.4010    3.2970    2.1330 H   0  0  0  0  0  0  0  0  0  0  0  0
    0.5400    0.0430    0.8860 H   0  0  0  0  0  0  0  0  0  0  0  0
    5.6060    2.6470   -2.0320 H   0  0  0  0  0  0  0  0  0  0  0  0
    4.7050    2.0770   -3.4570 H   0  0  0  0  0  0  0  0  0  0  0  0
    4.5560    3.7700   -2.9280 H   0  0  0  0  0  0  0  0  0  0  0  0
    4.8340   -1.1960   -0.5060 H   0  0  0  0  0  0  0  0  0  0  0  0
    1.3980   -4.0900    2.3970 H   0  0  0  0  0  0  0  0  0  0  0  0
    0.2710   -2.8500    2.2630 H   0  0  0  0  0  0  0  0  0  0  0  0
  1  2  1  0  0  0  0
  1 10  1  0  0  0  0
  2  3  1  0  0  0  0
  2 27  1  0  0  0  0
  2 28  1  0  0  0  0
  3  4  2  0  0  0  0
  3  5  1  0  0  0  0
  4 29  1  0  0  0  0
  4 30  1  0  0  0  0
  5  6  1  0  0  0  0
  5  9  2  0  0  0  0
  6  7  2  0  0  0  0
  6  8  1  0  0  0  0
  8 31  1  0  0  0  0
  9 10  1  0  0  0  0
 10 11  1  0  0  0  0
 10 32  1  0  0  0  0
 11 12  1  0  0  0  0
 11 14  1  0  0  0  0
 11 33  1  0  0  0  0
 12 13  2  0  0  0  0
 12 34  1  0  0  0  0
 14 15  1  0  0  0  0
 14 35  1  0  0  0  0
 15 16  2  0  0  0  0
 15 17  1  0  0  0  0
 17 18  2  0  0  0  0
 17 21  1  0  0  0  0
 18 19  1  0  0  0  0
 19 20  1  0  0  0  0
 20 36  1  0  0  0  0
 20 37  1  0  0  0  0
 20 38  1  0  0  0  0
 21 22  2  0  0  0  0
 21 26  1  0  0  0  0
 22 23  1  0  0  0  0
 22 39  1  0  0  0  0
 23 24  1  0  0  0  0
 24 25  1  0  0  0  0
 24 26  2  0  0  0  0
 25 40  1  0  0  0  0
 25 41  1  0  0  0  0
M  END
> <OPENEYE_ISO_SMILES>
CO/N=C(/c1csc(n1)N)\C(=O)N[C@H](C=O)[C@@H]2N=C(C(=C)CS2)C(=O)O

> <OPENEYE_INCHI>
InChI=1S/C14H15N5O5S2/c1-6-4-25-12(18-9(6)13(22)23)7(3-20)16-11(21)10(19-24-2)8-5-26-14(15)17-8/h3,5,7,12H,1,4H2,2H3,(H2,15,17)(H,16,21)(H,22,23)/b19-10-/t7-,12-/m1/s1

> <OPENEYE_INCHIKEY>
NRYMPLKBKFIWQC-YVCCLBOHSA-N

> <FORMULA>
C14H15N5O5S2

$$$$
