REMARK  9 active torsions:
REMARK  status: ('A' for Active; 'I' for Inactive)
REMARK    1  A    between atoms: CA_5  and  C_6 
REMARK    2  A    between atoms: C_6  and  OXT_8 
REMARK    3  A    between atoms: C_10  and  CA_11 
REMARK    4  A    between atoms: CA_11  and  C_12 
REMARK    5  A    between atoms: CA_11  and  N_14 
REMARK       I    between atoms: N_14  and  C_15 
REMARK    6  A    between atoms: C_15  and  C_17 
REMARK    7  A    between atoms: C_17  and  C_21 
REMARK    8  A    between atoms: N_18  and  O_19 
REMARK    9  A    between atoms: C_24  and  N_25 
ROOT
HETATM    1  N   UNL     1       0.468   0.927   0.494  1.00  0.00    -0.342 N 
HETATM    2  C   UNL     1       1.496   1.436  -0.214  1.00  0.00     0.275 C 
HETATM    3  O   UNL     1       1.441   2.576  -0.632  1.00  0.00    -0.266 OA
HETATM    4  H   UNL     1       0.540   0.043   0.886  1.00  0.00     0.163 HD
ENDROOT
BRANCH   1   5
HETATM    5  CA  UNL     1      -0.757   1.710   0.672  1.00  0.00     0.181 C 
BRANCH   5   6
HETATM    6  C   UNL     1      -1.933   0.766   0.927  1.00  0.00     0.199 C 
HETATM    7  S   UNL     1      -3.472   1.729   1.000  1.00  0.00    -0.135 SA
HETATM    8  C   UNL     1      -4.728   0.410   0.915  1.00  0.00     0.116 C 
HETATM    9  C   UNL     1      -4.437  -0.388  -0.341  1.00  0.00    -0.023 C 
HETATM   10  C   UNL     1      -5.431  -0.786  -1.129  1.00  0.00     0.022 C 
HETATM   11  CA  UNL     1      -3.046  -0.716  -0.678  1.00  0.00     0.132 C 
HETATM   12  N   UNL     1      -2.002  -0.217  -0.143  1.00  0.00    -0.264 NA
BRANCH  11  13
HETATM   13  C   UNL     1      -2.835  -1.729  -1.746  1.00  0.00     0.195 C 
HETATM   14  O   UNL     1      -3.782  -2.333  -2.205  1.00  0.00    -0.645 OA
BRANCH  13  15
HETATM   15  OXT UNL     1      -1.593  -1.975  -2.204  1.00  0.00    -0.772 OA
HETATM   16  HXT UNL     1      -1.506  -2.641  -2.899  1.00  0.00     0.167 HD
ENDBRANCH  13  15
ENDBRANCH  11  13
ENDBRANCH   5   6
BRANCH   5  17
HETATM   17  C   UNL     1      -0.594   2.638   1.849  1.00  0.00     0.259 C 
HETATM   18  O   UNL     1       0.440   2.644   2.474  1.00  0.00    -0.305 OA
ENDBRANCH   5  17
ENDBRANCH   1   5
BRANCH   2  19
HETATM   19  C   UNL     1       2.693   0.604  -0.484  1.00  0.00     0.180 C 
HETATM   20  N   UNL     1       3.637   1.055  -1.261  1.00  0.00    -0.126 NA
BRANCH  20  21
HETATM   21  O   UNL     1       3.576   2.381  -1.753  1.00  0.00    -0.261 OA
HETATM   22  C   UNL     1       4.676   2.740  -2.592  1.00  0.00     0.240 C 
ENDBRANCH  20  21
BRANCH  19  23
HETATM   23  C   UNL     1       2.815  -0.736   0.128  1.00  0.00     0.102 A 
HETATM   24  C   UNL     1       3.934  -1.480   0.020  1.00  0.00     0.087 A 
HETATM   25  S   UNL     1       3.675  -2.995   0.882  1.00  0.00    -0.062 SA
HETATM   26  C   UNL     1       2.051  -2.475   1.317  1.00  0.00     0.164 A 
HETATM   27  N   UNL     1       1.829  -1.293   0.832  1.00  0.00    -0.222 NA
BRANCH  26  28
HETATM   28  N   UNL     1       1.150  -3.212   2.067  1.00  0.00    -0.378 N 
HETATM   29  H   UNL     1       1.398  -4.090   2.397  1.00  0.00     0.158 HD
HETATM   30  H   UNL     1       0.271  -2.850   2.263  1.00  0.00     0.158 HD
ENDBRANCH  26  28
ENDBRANCH  19  23
ENDBRANCH   2  19
TORSDOF 9
