CEO
  -OEChem-07282321083D

 36 37  0     1  0  0  0  0  0999 V2000
   -1.8990    1.0690    1.6180 S   0  0  0  0  0  0  0  0  0  0  0  0
   -2.2770    0.7320    3.3670 C   0  0  0  0  0  0  0  0  0  0  0  0
   -1.3410   -0.3710    3.8170 C   0  0  0  0  0  0  0  0  0  0  0  0
   -1.7920   -1.3770    4.5600 C   0  0  0  0  0  0  0  0  0  0  0  0
    0.0740   -0.3070    3.4280 C   0  0  0  0  0  0  0  0  0  0  0  0
    1.0120   -1.2460    4.0990 C   0  0  0  0  0  0  0  0  0  0  0  0
    2.2910   -1.3300    3.6870 O   0  0  0  0  0  0  0  0  0  0  0  0
    0.6250   -1.9370    5.0180 O   0  0  0  0  0  0  0  0  0  0  0  0
    0.5620    0.4870    2.5560 N   0  0  0  0  0  0  0  0  0  0  0  0
   -0.1430    1.4970    1.7860 C   0  0  1  0  0  0  0  0  0  0  0  0
    0.4830    1.5990    0.3940 C   0  0  1  0  0  0  0  0  0  0  0  0
    1.9340    1.9860    0.5240 C   0  0  0  0  0  0  0  0  0  0  0  0
    2.7940    1.2550    0.0950 O   0  0  0  0  0  0  0  0  0  0  0  0
    0.3820    0.3040   -0.2820 N   0  0  0  0  0  0  0  0  0  0  0  0
    0.2820    0.2520   -1.6250 C   0  0  0  0  0  0  0  0  0  0  0  0
    0.2770    1.2770   -2.2730 O   0  0  0  0  0  0  0  0  0  0  0  0
    0.1780   -1.0790   -2.3220 C   0  0  0  0  0  0  0  0  0  0  0  0
    0.0790   -0.8610   -3.8100 C   0  0  0  0  0  0  0  0  0  0  0  0
    1.0730   -0.7750   -4.7280 C   0  0  0  0  0  0  0  0  0  0  0  0
    0.7440   -0.5730   -6.0560 C   0  0  0  0  0  0  0  0  0  0  0  0
   -0.5620   -0.4570   -6.3980 C   0  0  0  0  0  0  0  0  0  0  0  0
   -1.3750   -0.6420   -4.8200 S   0  0  0  0  0  0  0  0  0  0  0  0
   -2.1130    1.6290    3.9630 H   0  0  0  0  0  0  0  0  0  0  0  0
   -3.3120    0.4030    3.4670 H   0  0  0  0  0  0  0  0  0  0  0  0
   -1.1490   -2.2160    4.7810 H   0  0  0  0  0  0  0  0  0  0  0  0
   -2.8020   -1.3560    4.9430 H   0  0  0  0  0  0  0  0  0  0  0  0
    2.9000   -1.9410    4.1230 H   0  0  0  0  0  0  0  0  0  0  0  0
   -0.0550    2.4590    2.2910 H   0  0  0  0  0  0  0  0  0  0  0  0
   -0.0430    2.3550   -0.1860 H   0  0  0  0  0  0  0  0  0  0  0  0
    2.2040    2.9160    1.0010 H   0  0  0  0  0  0  0  0  0  0  0  0
    0.3860   -0.5150    0.2350 H   0  0  0  0  0  0  0  0  0  0  0  0
    1.0630   -1.6760   -2.1010 H   0  0  0  0  0  0  0  0  0  0  0  0
   -0.7100   -1.6040   -1.9720 H   0  0  0  0  0  0  0  0  0  0  0  0
    2.1060   -0.8700   -4.4280 H   0  0  0  0  0  0  0  0  0  0  0  0
    1.5160   -0.5050   -6.8070 H   0  0  0  0  0  0  0  0  0  0  0  0
   -0.9970   -0.2950   -7.3730 H   0  0  0  0  0  0  0  0  0  0  0  0
  1  2  1  0  0  0  0
  1 10  1  0  0  0  0
  2  3  1  0  0  0  0
  2 23  1  0  0  0  0
  2 24  1  0  0  0  0
  3  4  2  0  0  0  0
  3  5  1  0  0  0  0
  4 25  1  0  0  0  0
  4 26  1  0  0  0  0
  5  6  1  0  0  0  0
  5  9  2  0  0  0  0
  6  7  1  0  0  0  0
  6  8  2  0  0  0  0
  7 27  1  0  0  0  0
  9 10  1  0  0  0  0
 10 11  1  0  0  0  0
 10 28  1  0  0  0  0
 11 12  1  0  0  0  0
 11 14  1  0  0  0  0
 11 29  1  0  0  0  0
 12 13  2  0  0  0  0
 12 30  1  0  0  0  0
 14 15  1  0  0  0  0
 14 31  1  0  0  0  0
 15 16  2  0  0  0  0
 15 17  1  0  0  0  0
 17 18  1  0  0  0  0
 17 32  1  0  0  0  0
 17 33  1  0  0  0  0
 18 19  2  0  0  0  0
 18 22  1  0  0  0  0
 19 20  1  0  0  0  0
 19 34  1  0  0  0  0
 20 21  2  0  0  0  0
 20 35  1  0  0  0  0
 21 22  1  0  0  0  0
 21 36  1  0  0  0  0
M  END
> <OPENEYE_ISO_SMILES>
C=C1CS[C@@H](N=C1C(=O)O)[C@@H](C=O)NC(=O)Cc2cccs2

> <OPENEYE_INCHI>
InChI=1S/C14H14N2O4S2/c1-8-7-22-13(16-12(8)14(19)20)10(6-17)15-11(18)5-9-3-2-4-21-9/h2-4,6,10,13H,1,5,7H2,(H,15,18)(H,19,20)/t10-,13-/m1/s1

> <OPENEYE_INCHIKEY>
FYGLCWWPHIWVKN-ZWNOBZJWSA-N

> <FORMULA>
C14H14N2O4S2

$$$$
