REMARK  10 active torsions:
REMARK  status: ('A' for Active; 'I' for Inactive)
REMARK    1  A    between atoms: C_3  and  C_4 
REMARK    2  A    between atoms: C_4  and  C_5 
REMARK    3  A    between atoms: C_5  and  O_7 
REMARK    4  A    between atoms: CA_9  and  C_10 
REMARK    5  A    between atoms: C_10  and  OXT_12 
REMARK    6  A    between atoms: C_14  and  CA_15 
REMARK    7  A    between atoms: CA_15  and  C_16 
REMARK    8  A    between atoms: CA_15  and  N_18 
REMARK       I    between atoms: N_18  and  C_19 
REMARK    9  A    between atoms: C_19  and  C_21 
REMARK   10  A    between atoms: C_21  and  C_22 
ROOT
HETATM    1  S   UNL     1      -4.472  -0.955   2.243  1.00  0.00    -0.137 SA
HETATM    2  C   UNL     1      -4.280   0.809   1.858  1.00  0.00     0.113 C 
HETATM    3  C   UNL     1      -2.881   1.207   1.424  1.00  0.00    -0.028 C 
HETATM    4  CA  UNL     1      -2.018   0.316   0.885  1.00  0.00     0.107 C 
HETATM    5  N   UNL     1      -2.306  -1.010   0.635  1.00  0.00    -0.368 N 
HETATM    6  C   UNL     1      -3.608  -1.627   0.788  1.00  0.00     0.173 C 
HETATM    7  H   UNL     1      -1.577  -1.550   0.178  1.00  0.00     0.161 HD
ENDROOT
BRANCH   6   8
HETATM    8  CA  UNL     1      -3.449  -3.133   0.948  1.00  0.00     0.178 C 
BRANCH   8   9
HETATM    9  C   UNL     1      -2.773  -3.753  -0.250  1.00  0.00     0.259 C 
HETATM   10  O   UNL     1      -3.248  -3.732  -1.383  1.00  0.00    -0.305 OA
ENDBRANCH   8   9
BRANCH   8  11
HETATM   11  N   UNL     1      -2.655  -3.452   2.101  1.00  0.00    -0.347 N 
HETATM   12  C   UNL     1      -3.125  -4.241   3.148  1.00  0.00     0.223 C 
HETATM   13  O   UNL     1      -4.247  -4.740   3.199  1.00  0.00    -0.273 OA
HETATM   14  H   UNL     1      -1.705  -3.085   2.156  1.00  0.00     0.163 HD
BRANCH  12  15
HETATM   15  C   UNL     1      -2.079  -4.421   4.231  1.00  0.00     0.148 C 
BRANCH  15  16
HETATM   16  C   UNL     1      -2.169  -3.391   5.326  1.00  0.00    -0.009 A 
HETATM   17  C   UNL     1      -3.235  -3.126   6.130  1.00  0.00     0.015 A 
HETATM   18  C   UNL     1      -2.938  -2.078   7.048  1.00  0.00     0.008 A 
HETATM   19  C   UNL     1      -1.655  -1.600   6.891  1.00  0.00     0.050 A 
HETATM   20  S   UNL     1      -0.815  -2.415   5.641  1.00  0.00    -0.106 SA
ENDBRANCH  15  16
ENDBRANCH  12  15
ENDBRANCH   8  11
ENDBRANCH   6   8
BRANCH   4  21
HETATM   21  C   UNL     1      -0.644   0.716   0.529  1.00  0.00     0.193 C 
HETATM   22  O   UNL     1      -0.017   1.581   1.102  1.00  0.00    -0.645 OA
BRANCH  21  23
HETATM   23  OXT UNL     1      -0.222  -0.025  -0.513  1.00  0.00    -0.772 OA
HETATM   24  HXT UNL     1       0.691   0.214  -0.779  1.00  0.00     0.167 HD
ENDBRANCH  21  23
ENDBRANCH   4  21
BRANCH   3  25
HETATM   25  C   UNL     1      -2.608   2.676   1.638  1.00  0.00     0.148 C 
BRANCH  25  26
HETATM   26  C   UNL     1      -2.008   2.904   3.000  1.00  0.00     0.262 C 
HETATM   27  O   UNL     1      -1.750   2.047   3.834  1.00  0.00    -0.265 OA
BRANCH  26  28
HETATM   28  O   UNL     1      -1.817   4.250   3.153  1.00  0.00    -0.326 OA
HETATM   29  C   UNL     1      -1.266   4.655   4.410  1.00  0.00     0.213 C 
ENDBRANCH  26  28
ENDBRANCH  25  26
ENDBRANCH   3  25
TORSDOF 10
