CEP
  -OEChem-07282321083D

 44 45  0     1  0  0  0  0  0999 V2000
   -4.4720   -0.9550    2.2430 S   0  0  0  0  0  0  0  0  0  0  0  0
   -4.2800    0.8090    1.8580 C   0  0  0  0  0  0  0  0  0  0  0  0
   -2.8810    1.2070    1.4240 C   0  0  0  0  0  0  0  0  0  0  0  0
   -2.6080    2.6760    1.6380 C   0  0  0  0  0  0  0  0  0  0  0  0
   -2.0080    2.9040    3.0000 C   0  0  0  0  0  0  0  0  0  0  0  0
   -1.7500    2.0470    3.8340 O   0  0  0  0  0  0  0  0  0  0  0  0
   -1.8170    4.2500    3.1530 O   0  0  0  0  0  0  0  0  0  0  0  0
   -1.2660    4.6550    4.4100 C   0  0  0  0  0  0  0  0  0  0  0  0
   -2.0180    0.3160    0.8850 C   0  0  0  0  0  0  0  0  0  0  0  0
   -0.6440    0.7160    0.5290 C   0  0  0  0  0  0  0  0  0  0  0  0
   -0.0170    1.5810    1.1020 O   0  0  0  0  0  0  0  0  0  0  0  0
   -0.2220   -0.0250   -0.5130 O   0  0  0  0  0  0  0  0  0  0  0  0
   -2.3060   -1.0100    0.6350 N   0  0  0  0  0  0  0  0  0  0  0  0
   -3.6080   -1.6270    0.7880 C   0  0  1  0  0  0  0  0  0  0  0  0
   -3.4490   -3.1330    0.9480 C   0  0  1  0  0  0  0  0  0  0  0  0
   -2.7730   -3.7530   -0.2500 C   0  0  0  0  0  0  0  0  0  0  0  0
   -3.2480   -3.7320   -1.3830 O   0  0  0  0  0  0  0  0  0  0  0  0
   -2.6550   -3.4520    2.1010 N   0  0  0  0  0  0  0  0  0  0  0  0
   -3.1250   -4.2410    3.1480 C   0  0  0  0  0  0  0  0  0  0  0  0
   -4.2470   -4.7400    3.1990 O   0  0  0  0  0  0  0  0  0  0  0  0
   -2.0790   -4.4210    4.2310 C   0  0  0  0  0  0  0  0  0  0  0  0
   -2.1690   -3.3910    5.3260 C   0  0  0  0  0  0  0  0  0  0  0  0
   -3.2350   -3.1260    6.1300 C   0  0  0  0  0  0  0  0  0  0  0  0
   -2.9380   -2.0780    7.0480 C   0  0  0  0  0  0  0  0  0  0  0  0
   -1.6550   -1.6000    6.8910 C   0  0  0  0  0  0  0  0  0  0  0  0
   -0.8150   -2.4150    5.6410 S   0  0  0  0  0  0  0  0  0  0  0  0
   -4.5480    1.3520    2.7710 H   0  0  0  0  0  0  0  0  0  0  0  0
   -5.0020    1.0910    1.0840 H   0  0  0  0  0  0  0  0  0  0  0  0
   -3.5500    3.2150    1.5650 H   0  0  0  0  0  0  0  0  0  0  0  0
   -1.9180    3.0050    0.8660 H   0  0  0  0  0  0  0  0  0  0  0  0
   -0.5860    3.8830    4.7770 H   0  0  0  0  0  0  0  0  0  0  0  0
   -2.0740    4.8150    5.1290 H   0  0  0  0  0  0  0  0  0  0  0  0
   -0.7140    5.5880    4.2720 H   0  0  0  0  0  0  0  0  0  0  0  0
    0.6910    0.2140   -0.7790 H   0  0  0  0  0  0  0  0  0  0  0  0
   -4.2170   -1.4280   -0.1000 H   0  0  0  0  0  0  0  0  0  0  0  0
   -4.4190   -3.6160    1.0830 H   0  0  0  0  0  0  0  0  0  0  0  0
   -1.7580   -4.1570   -0.0880 H   0  0  0  0  0  0  0  0  0  0  0  0
   -1.7050   -3.0850    2.1560 H   0  0  0  0  0  0  0  0  0  0  0  0
   -1.0840   -4.3830    3.7710 H   0  0  0  0  0  0  0  0  0  0  0  0
   -2.1870   -5.4270    4.6580 H   0  0  0  0  0  0  0  0  0  0  0  0
   -4.1850   -3.6420    6.0790 H   0  0  0  0  0  0  0  0  0  0  0  0
   -3.6300   -1.6940    7.7870 H   0  0  0  0  0  0  0  0  0  0  0  0
   -1.1710   -0.8130    7.4520 H   0  0  0  0  0  0  0  0  0  0  0  0
   -1.5770   -1.5500    0.1780 H   0  0  0  0  0  0  0  0  0  0  0  0
  1  2  1  0  0  0  0
  1 14  1  0  0  0  0
  2  3  1  0  0  0  0
  2 27  1  0  0  0  0
  2 28  1  0  0  0  0
  3  4  1  0  0  0  0
  3  9  2  0  0  0  0
  4  5  1  0  0  0  0
  4 29  1  0  0  0  0
  4 30  1  0  0  0  0
  5  6  2  0  0  0  0
  5  7  1  0  0  0  0
  7  8  1  0  0  0  0
  8 31  1  0  0  0  0
  8 32  1  0  0  0  0
  8 33  1  0  0  0  0
  9 10  1  0  0  0  0
  9 13  1  0  0  0  0
 10 11  2  0  0  0  0
 10 12  1  0  0  0  0
 12 34  1  0  0  0  0
 13 14  1  0  0  0  0
 14 15  1  0  0  0  0
 14 35  1  0  0  0  0
 15 16  1  0  0  0  0
 15 18  1  0  0  0  0
 15 36  1  0  0  0  0
 16 17  2  0  0  0  0
 16 37  1  0  0  0  0
 18 19  1  0  0  0  0
 18 38  1  0  0  0  0
 19 20  2  0  0  0  0
 19 21  1  0  0  0  0
 21 22  1  0  0  0  0
 21 39  1  0  0  0  0
 21 40  1  0  0  0  0
 22 23  2  0  0  0  0
 22 26  1  0  0  0  0
 23 24  1  0  0  0  0
 23 41  1  0  0  0  0
 24 25  2  0  0  0  0
 24 42  1  0  0  0  0
 25 26  1  0  0  0  0
 25 43  1  0  0  0  0
 13 44  1  0  0  0  0
M  END
> <OPENEYE_ISO_SMILES>
COC(=O)CC1=C(N[C@H](SC1)[C@@H](C=O)NC(=O)Cc2cccs2)C(=O)O

> <OPENEYE_INCHI>
InChI=1S/C16H18N2O6S2/c1-24-13(21)5-9-8-26-15(18-14(9)16(22)23)11(7-19)17-12(20)6-10-3-2-4-25-10/h2-4,7,11,15,18H,5-6,8H2,1H3,(H,17,20)(H,22,23)/t11-,15-/m1/s1

> <OPENEYE_INCHIKEY>
UUWFGEKEQSCSMB-IAQYHMDHSA-N

> <FORMULA>
C16H18N2O6S2

$$$$
