REMARK  9 active torsions:
REMARK  status: ('A' for Active; 'I' for Inactive)
REMARK    1  A    between atoms: C_7  and  C_9 
REMARK    2  A    between atoms: C_8  and  C_10 
REMARK    3  A    between atoms: C_9  and  O_25 
REMARK    4  A    between atoms: C_10  and  O_12 
REMARK    5  A    between atoms: C_13  and  O_14 
REMARK    6  A    between atoms: C_13  and  N_16 
REMARK       I    between atoms: N_16  and  C_17 
REMARK    7  A    between atoms: C_17  and  C_19 
REMARK    8  A    between atoms: C_19  and  C_20 
REMARK    9  A    between atoms: O_25  and  C_26 
REMARK       I    between atoms: C_26  and  N_28 
ROOT
HETATM    1  C   UNL     1       3.869  -1.406  -0.563  1.00  0.00     0.285 C 
HETATM    2  O   UNL     1       3.365  -2.497  -0.694  1.00  0.00    -0.267 OA
HETATM    3  N   UNL     1       3.390  -0.177  -0.274  1.00  0.00    -0.288 N 
HETATM    4  C   UNL     1       4.671   0.499  -0.182  1.00  0.00     0.221 C 
HETATM    5  S   UNL     1       4.648   1.932  -1.283  1.00  0.00    -0.133 SA
HETATM    6  C   UNL     1       3.259   2.725  -0.402  1.00  0.00     0.115 C 
HETATM    7  C   UNL     1       2.089   1.792  -0.096  1.00  0.00    -0.013 C 
HETATM    8  C   UNL     1       2.195   0.442  -0.092  1.00  0.00     0.118 C 
HETATM    9  C   UNL     1       5.288  -0.796  -0.753  1.00  0.00     0.250 C 
ENDROOT
BRANCH   9  10
HETATM   10  O   UNL     1       6.280  -1.484   0.033  1.00  0.00    -0.355 OA
HETATM   11  C   UNL     1       7.558  -0.911  -0.159  1.00  0.00     0.205 C 
ENDBRANCH   9  10
BRANCH   9  12
HETATM   12  N   UNL     1       5.648  -0.664  -2.172  1.00  0.00    -0.319 N 
HETATM   13  C   UNL     1       5.711  -1.755  -3.005  1.00  0.00     0.225 C 
HETATM   14  O   UNL     1       5.484  -2.919  -2.686  1.00  0.00    -0.273 OA
HETATM   15  H   UNL     1       5.855   0.246  -2.541  1.00  0.00     0.166 HD
BRANCH  13  16
HETATM   16  C   UNL     1       6.099  -1.333  -4.409  1.00  0.00     0.148 C 
BRANCH  16  17
HETATM   17  C   UNL     1       5.041  -1.634  -5.437  1.00  0.00    -0.009 A 
HETATM   18  S   UNL     1       3.493  -0.962  -5.236  1.00  0.00    -0.106 SA
HETATM   19  C   UNL     1       2.947  -1.710  -6.676  1.00  0.00     0.050 A 
HETATM   20  C   UNL     1       3.938  -2.451  -7.282  1.00  0.00     0.008 A 
HETATM   21  C   UNL     1       5.162  -2.404  -6.553  1.00  0.00     0.015 A 
ENDBRANCH  16  17
ENDBRANCH  13  16
ENDBRANCH   9  12
BRANCH   8  22
HETATM   22  C   UNL     1       1.011  -0.420   0.047  1.00  0.00     0.194 C 
HETATM   23  O   UNL     1       0.353  -0.833  -0.887  1.00  0.00    -0.645 OA
BRANCH  22  24
HETATM   24  O   UNL     1       0.788  -0.667   1.352  1.00  0.00    -0.772 OA
HETATM   25  H   UNL     1       0.003  -1.240   1.485  1.00  0.00     0.167 HD
ENDBRANCH  22  24
ENDBRANCH   8  22
BRANCH   7  26
HETATM   26  C   UNL     1       0.816   2.554   0.180  1.00  0.00     0.218 C 
BRANCH  26  27
HETATM   27  O   UNL     1       1.007   3.395   1.298  1.00  0.00    -0.300 OA
BRANCH  27  28
HETATM   28  C   UNL     1      -0.067   4.160   1.680  1.00  0.00     0.358 C 
HETATM   29  O   UNL     1      -1.158   4.156   1.119  1.00  0.00    -0.239 OA
HETATM   30  N   UNL     1       0.238   4.932   2.773  1.00  0.00    -0.346 N 
HETATM   31  H   UNL     1       1.166   4.876   3.178  1.00  0.00     0.161 HD
HETATM   32  H   UNL     1      -0.446   5.558   3.185  1.00  0.00     0.161 HD
ENDBRANCH  27  28
ENDBRANCH  26  27
ENDBRANCH   7  26
TORSDOF 9
