CFX
  -OEChem-07282321083D

 45 47  0     1  0  0  0  0  0999 V2000
    3.8690   -1.4060   -0.5630 C   0  0  0  0  0  0  0  0  0  0  0  0
    3.3650   -2.4970   -0.6940 O   0  0  0  0  0  0  0  0  0  0  0  0
    3.3900   -0.1770   -0.2740 N   0  0  0  0  0  0  0  0  0  0  0  0
    4.6710    0.4990   -0.1820 C   0  0  2  0  0  0  0  0  0  0  0  0
    4.6480    1.9320   -1.2830 S   0  0  0  0  0  0  0  0  0  0  0  0
    3.2590    2.7250   -0.4020 C   0  0  0  0  0  0  0  0  0  0  0  0
    2.0890    1.7920   -0.0960 C   0  0  0  0  0  0  0  0  0  0  0  0
    2.1950    0.4420   -0.0920 C   0  0  0  0  0  0  0  0  0  0  0  0
    0.8160    2.5540    0.1800 C   0  0  0  0  0  0  0  0  0  0  0  0
    1.0110   -0.4200    0.0470 C   0  0  0  0  0  0  0  0  0  0  0  0
    0.3530   -0.8330   -0.8870 O   0  0  0  0  0  0  0  0  0  0  0  0
    0.7880   -0.6670    1.3520 O   0  0  0  0  0  0  0  0  0  0  0  0
    5.2880   -0.7960   -0.7530 C   0  0  1  0  0  0  0  0  0  0  0  0
    6.2800   -1.4840    0.0330 O   0  0  0  0  0  0  0  0  0  0  0  0
    7.5580   -0.9110   -0.1590 C   0  0  0  0  0  0  0  0  0  0  0  0
    5.6480   -0.6640   -2.1720 N   0  0  0  0  0  0  0  0  0  0  0  0
    5.7110   -1.7550   -3.0050 C   0  0  0  0  0  0  0  0  0  0  0  0
    5.4840   -2.9190   -2.6860 O   0  0  0  0  0  0  0  0  0  0  0  0
    6.0990   -1.3330   -4.4090 C   0  0  0  0  0  0  0  0  0  0  0  0
    5.0410   -1.6340   -5.4370 C   0  0  0  0  0  0  0  0  0  0  0  0
    3.4930   -0.9620   -5.2360 S   0  0  0  0  0  0  0  0  0  0  0  0
    2.9470   -1.7100   -6.6760 C   0  0  0  0  0  0  0  0  0  0  0  0
    3.9380   -2.4510   -7.2820 C   0  0  0  0  0  0  0  0  0  0  0  0
    5.1620   -2.4040   -6.5530 C   0  0  0  0  0  0  0  0  0  0  0  0
    1.0070    3.3950    1.2980 O   0  0  0  0  0  0  0  0  0  0  0  0
   -0.0670    4.1600    1.6800 C   0  0  0  0  0  0  0  0  0  0  0  0
   -1.1580    4.1560    1.1190 O   0  0  0  0  0  0  0  0  0  0  0  0
    0.2380    4.9320    2.7730 N   0  0  0  0  0  0  0  0  0  0  0  0
    4.9550    0.7300    0.8530 H   0  0  0  0  0  0  0  0  0  0  0  0
    2.9180    3.5440   -1.0440 H   0  0  0  0  0  0  0  0  0  0  0  0
    3.6310    3.1620    0.5310 H   0  0  0  0  0  0  0  0  0  0  0  0
    0.0100    1.8550    0.3800 H   0  0  0  0  0  0  0  0  0  0  0  0
    0.5730    3.1600   -0.6870 H   0  0  0  0  0  0  0  0  0  0  0  0
    0.0030   -1.2400    1.4850 H   0  0  0  0  0  0  0  0  0  0  0  0
    8.2480   -1.6710   -0.5330 H   0  0  0  0  0  0  0  0  0  0  0  0
    7.9240   -0.5070    0.7890 H   0  0  0  0  0  0  0  0  0  0  0  0
    7.4790   -0.1030   -0.8900 H   0  0  0  0  0  0  0  0  0  0  0  0
    5.8550    0.2460   -2.5410 H   0  0  0  0  0  0  0  0  0  0  0  0
    7.0330   -1.8390   -4.6850 H   0  0  0  0  0  0  0  0  0  0  0  0
    6.3160   -0.2580   -4.4040 H   0  0  0  0  0  0  0  0  0  0  0  0
    1.9280   -1.5740   -7.0100 H   0  0  0  0  0  0  0  0  0  0  0  0
    3.7930   -3.0010   -8.2020 H   0  0  0  0  0  0  0  0  0  0  0  0
    6.0700   -2.9130   -6.8510 H   0  0  0  0  0  0  0  0  0  0  0  0
    1.1660    4.8760    3.1780 H   0  0  0  0  0  0  0  0  0  0  0  0
   -0.4460    5.5580    3.1850 H   0  0  0  0  0  0  0  0  0  0  0  0
  1  2  2  0  0  0  0
  1  3  1  0  0  0  0
  1 13  1  0  0  0  0
  3  4  1  0  0  0  0
  3  8  1  0  0  0  0
  4  5  1  0  0  0  0
  4 13  1  0  0  0  0
  4 29  1  0  0  0  0
  5  6  1  0  0  0  0
  6  7  1  0  0  0  0
  6 30  1  0  0  0  0
  6 31  1  0  0  0  0
  7  8  2  0  0  0  0
  7  9  1  0  0  0  0
  8 10  1  0  0  0  0
  9 25  1  0  0  0  0
  9 32  1  0  0  0  0
  9 33  1  0  0  0  0
 10 11  2  0  0  0  0
 10 12  1  0  0  0  0
 12 34  1  0  0  0  0
 13 14  1  0  0  0  0
 13 16  1  0  0  0  0
 14 15  1  0  0  0  0
 15 35  1  0  0  0  0
 15 36  1  0  0  0  0
 15 37  1  0  0  0  0
 16 17  1  0  0  0  0
 16 38  1  0  0  0  0
 17 18  2  0  0  0  0
 17 19  1  0  0  0  0
 19 20  1  0  0  0  0
 19 39  1  0  0  0  0
 19 40  1  0  0  0  0
 20 21  1  0  0  0  0
 20 24  2  0  0  0  0
 21 22  1  0  0  0  0
 22 23  2  0  0  0  0
 22 41  1  0  0  0  0
 23 24  1  0  0  0  0
 23 42  1  0  0  0  0
 24 43  1  0  0  0  0
 25 26  1  0  0  0  0
 26 27  2  0  0  0  0
 26 28  1  0  0  0  0
 28 44  1  0  0  0  0
 28 45  1  0  0  0  0
M  END
> <OPENEYE_ISO_SMILES>
CO[C@@]1([C@@H]2N(C1=O)C(=C(CS2)COC(=O)N)C(=O)O)NC(=O)Cc3cccs3

> <OPENEYE_INCHI>
InChI=1S/C16H17N3O7S2/c1-25-16(18-10(20)5-9-3-2-4-27-9)13(23)19-11(12(21)22)8(6-26-15(17)24)7-28-14(16)19/h2-4,14H,5-7H2,1H3,(H2,17,24)(H,18,20)(H,21,22)/t14-,16+/m1/s1

> <OPENEYE_INCHIKEY>
WZOZEZRFJCJXNZ-ZBFHGGJFSA-N

> <FORMULA>
C16H17N3O7S2

$$$$
