CTB
  -OEChem-07282321083D

 23 23  0     0  0  0  0  0  0999 V2000
    0.3530   -0.1530    3.5820 B   0  0  0  0  0  0  0  0  0  0  0  0
    0.6760   -0.9480    4.7130 O   0  0  0  0  0  0  0  0  0  0  0  0
    1.3110    0.7490    3.0510 O   0  0  0  0  0  0  0  0  0  0  0  0
   -1.0650   -0.2720    2.9190 C   0  0  0  0  0  0  0  0  0  0  0  0
   -1.1490    0.6440    1.7790 N   0  0  0  0  0  0  0  0  0  0  0  0
   -0.7880    0.2260    0.5500 C   0  0  0  0  0  0  0  0  0  0  0  0
   -0.3930   -0.9090    0.3870 O   0  0  0  0  0  0  0  0  0  0  0  0
   -0.8750    1.1690   -0.6210 C   0  0  0  0  0  0  0  0  0  0  0  0
   -0.4170    0.4610   -1.8710 C   0  0  0  0  0  0  0  0  0  0  0  0
   -1.1440   -0.2620   -2.7570 C   0  0  0  0  0  0  0  0  0  0  0  0
   -0.5060   -0.8240   -3.8460 C   0  0  0  0  0  0  0  0  0  0  0  0
    0.8290   -0.6450   -3.9900 C   0  0  0  0  0  0  0  0  0  0  0  0
    1.2240    0.3500   -2.5620 S   0  0  0  0  0  0  0  0  0  0  0  0
    1.5840   -0.7250    4.9610 H   0  0  0  0  0  0  0  0  0  0  0  0
    2.1050    0.6670    3.5970 H   0  0  0  0  0  0  0  0  0  0  0  0
   -1.2210   -1.2940    2.5750 H   0  0  0  0  0  0  0  0  0  0  0  0
   -1.8300   -0.0140    3.6510 H   0  0  0  0  0  0  0  0  0  0  0  0
   -1.4650    1.5520    1.9090 H   0  0  0  0  0  0  0  0  0  0  0  0
   -1.9070    1.4970   -0.7480 H   0  0  0  0  0  0  0  0  0  0  0  0
   -0.2380    2.0340   -0.4400 H   0  0  0  0  0  0  0  0  0  0  0  0
   -2.2080   -0.3890   -2.6190 H   0  0  0  0  0  0  0  0  0  0  0  0
   -1.0630   -1.4010   -4.5700 H   0  0  0  0  0  0  0  0  0  0  0  0
    1.4840   -1.0110   -4.7670 H   0  0  0  0  0  0  0  0  0  0  0  0
  1  2  1  0  0  0  0
  1  3  1  0  0  0  0
  1  4  1  0  0  0  0
  2 14  1  0  0  0  0
  3 15  1  0  0  0  0
  4  5  1  0  0  0  0
  4 16  1  0  0  0  0
  4 17  1  0  0  0  0
  5  6  1  0  0  0  0
  5 18  1  0  0  0  0
  6  7  2  0  0  0  0
  6  8  1  0  0  0  0
  8  9  1  0  0  0  0
  8 19  1  0  0  0  0
  8 20  1  0  0  0  0
  9 10  2  0  0  0  0
  9 13  1  0  0  0  0
 10 11  1  0  0  0  0
 10 21  1  0  0  0  0
 11 12  2  0  0  0  0
 11 22  1  0  0  0  0
 12 13  1  0  0  0  0
 12 23  1  0  0  0  0
M  END
> <OPENEYE_ISO_SMILES>
B(CNC(=O)Cc1cccs1)(O)O

> <OPENEYE_INCHI>
InChI=1S/C7H10BNO3S/c10-7(9-5-8(11)12)4-6-2-1-3-13-6/h1-3,11-12H,4-5H2,(H,9,10)

> <OPENEYE_INCHIKEY>
VXAPSUDMBNWYNC-UHFFFAOYSA-N

> <FORMULA>
C7H10BNO3S

$$$$
