REMARK  14 active torsions:
REMARK  status: ('A' for Active; 'I' for Inactive)
REMARK    1  A    between atoms: C_1  and  CA_9 
REMARK    2  A    between atoms: C_5  and  C_28 
REMARK    3  A    between atoms: CA_6  and  C_29 
REMARK    4  A    between atoms: C_8  and  CA_9 
REMARK    5  A    between atoms: CA_9  and  N_10 
REMARK       I    between atoms: N_10  and  C_11 
REMARK    6  A    between atoms: C_11  and  C_13 
REMARK    7  A    between atoms: C_13  and  C_14 
REMARK    8  A    between atoms: N_16  and  O_19 
REMARK    9  A    between atoms: C_18  and  N_21 
REMARK   10  A    between atoms: O_19  and  C_20 
REMARK   11  A    between atoms: C_20  and  C_25 
REMARK   12  A    between atoms: C_25  and  O_26 
REMARK   13  A    between atoms: C_28  and  N_38 
REMARK   14  A    between atoms: C_29  and  O_30 
ROOT
HETATM    1  N   UNL     1       1.049  -0.047   0.031  1.00  0.00    -0.342 N 
HETATM    2  C   UNL     1       2.351  -0.383  -0.057  1.00  0.00     0.275 C 
HETATM    3  O   UNL     1       2.669  -1.543  -0.230  1.00  0.00    -0.266 OA
HETATM    4  H   UNL     1       0.791   0.886   0.094  1.00  0.00     0.163 HD
ENDROOT
BRANCH   1   5
HETATM    5  CA  UNL     1       0.021  -1.091   0.030  1.00  0.00     0.179 C 
BRANCH   5   6
HETATM    6  C   UNL     1      -0.318  -1.461  -1.391  1.00  0.00     0.259 C 
HETATM    7  O   UNL     1       0.240  -0.908  -2.309  1.00  0.00    -0.305 OA
ENDBRANCH   5   6
BRANCH   5   8
HETATM    8  C   UNL     1      -1.233  -0.573   0.736  1.00  0.00     0.173 C 
HETATM    9  S   UNL     1      -1.871   0.897  -0.131  1.00  0.00    -0.137 SA
HETATM   10  C   UNL     1      -3.397   1.225   0.802  1.00  0.00     0.114 C 
HETATM   11  C   UNL     1      -4.137  -0.064   1.015  1.00  0.00    -0.019 C 
HETATM   12  CA  UNL     1      -3.612  -1.266   0.966  1.00  0.00     0.108 C 
HETATM   13  N   UNL     1      -2.290  -1.595   0.693  1.00  0.00    -0.368 N 
HETATM   14  H   UNL     1      -2.061  -2.511   0.472  1.00  0.00     0.161 HD
BRANCH  11  15
HETATM   15  C   UNL     1      -5.612   0.030   1.313  1.00  0.00     0.165 C 
BRANCH  15  16
HETATM   16  N   UNL     1      -6.357   0.144   0.057  1.00  0.00    -0.362 N 
HETATM   17  C   UNL     1      -6.880  -0.941  -0.479  1.00  0.00     0.090 A 
HETATM   18  C   UNL     1      -7.590  -0.873  -1.663  1.00  0.00     0.017 A 
HETATM   19  C   UNL     1      -7.749   0.356  -2.286  1.00  0.00     0.003 A 
HETATM   20  C   UNL     1      -7.185   1.474  -1.691  1.00  0.00     0.017 A 
HETATM   21  C   UNL     1      -6.492   1.329  -0.504  1.00  0.00     0.090 A 
ENDBRANCH  15  16
ENDBRANCH  11  15
BRANCH  12  22
HETATM   22  C   UNL     1      -4.526  -2.393   1.228  1.00  0.00     0.193 C 
HETATM   23  OXT UNL     1      -4.911  -3.090   0.310  1.00  0.00    -0.645 OA
BRANCH  22  24
HETATM   24  O   UNL     1      -4.936  -2.649   2.487  1.00  0.00    -0.772 OA
HETATM   25  H   UNL     1      -5.535  -3.398   2.609  1.00  0.00     0.167 HD
ENDBRANCH  22  24
ENDBRANCH  12  22
ENDBRANCH   5   8
ENDBRANCH   1   5
BRANCH   2  26
HETATM   26  C   UNL     1       3.395   0.663   0.058  1.00  0.00     0.180 C 
HETATM   27  N   UNL     1       4.654   0.327   0.078  1.00  0.00    -0.125 NA
BRANCH  26  28
HETATM   28  C   UNL     1       3.008   2.087   0.150  1.00  0.00     0.102 A 
HETATM   29  C   UNL     1       3.914   3.084   0.131  1.00  0.00     0.087 A 
HETATM   30  S   UNL     1       3.053   4.616   0.262  1.00  0.00    -0.062 SA
HETATM   31  C   UNL     1       1.520   3.753   0.333  1.00  0.00     0.164 A 
HETATM   32  N   UNL     1       1.737   2.477   0.254  1.00  0.00    -0.222 NA
BRANCH  31  33
HETATM   33  N   UNL     1       0.274   4.345   0.449  1.00  0.00    -0.378 N 
HETATM   34  H   UNL     1       0.199   5.311   0.499  1.00  0.00     0.158 HD
HETATM   35  H   UNL     1      -0.524   3.795   0.481  1.00  0.00     0.158 HD
ENDBRANCH  31  33
ENDBRANCH  26  28
BRANCH  27  36
HETATM   36  O   UNL     1       5.030  -1.023  -0.126  1.00  0.00    -0.234 OA
BRANCH  36  37
HETATM   37  C   UNL     1       6.440  -1.247  -0.079  1.00  0.00     0.168 C 
HETATM   38  C   UNL     1       7.125  -0.418  -1.167  1.00  0.00     0.060 C 
HETATM   39  C   UNL     1       6.977  -0.831   1.292  1.00  0.00     0.060 C 
BRANCH  37  40
HETATM   40  C   UNL     1       6.724  -2.709  -0.307  1.00  0.00     0.178 C 
HETATM   41  O   UNL     1       5.813  -3.480  -0.492  1.00  0.00    -0.648 OA
BRANCH  40  42
HETATM   42  O   UNL     1       7.991  -3.155  -0.306  1.00  0.00    -0.774 OA
HETATM   43  H   UNL     1       8.123  -4.101  -0.456  1.00  0.00     0.167 HD
ENDBRANCH  40  42
ENDBRANCH  37  40
ENDBRANCH  36  37
ENDBRANCH  27  36
ENDBRANCH   2  26
TORSDOF 14
