CTJ
  -OEChem-07282321083D

 62 64  0     1  0  0  0  0  0999 V2000
   -0.3180   -1.4610   -1.3910 C   0  0  0  0  0  0  0  0  0  0  0  0
    0.2400   -0.9080   -2.3090 O   0  0  0  0  0  0  0  0  0  0  0  0
   -1.8710    0.8970   -0.1310 S   0  0  0  0  0  0  0  0  0  0  0  0
   -3.3970    1.2250    0.8020 C   0  0  0  0  0  0  0  0  0  0  0  0
   -4.1370   -0.0640    1.0150 C   0  0  0  0  0  0  0  0  0  0  0  0
   -3.6120   -1.2660    0.9660 C   0  0  0  0  0  0  0  0  0  0  0  0
   -2.2900   -1.5950    0.6930 N   0  0  0  0  0  0  0  0  0  0  0  0
   -1.2330   -0.5730    0.7360 C   0  0  1  0  0  0  0  0  0  0  0  0
    0.0210   -1.0910    0.0300 C   0  0  2  0  0  0  0  0  0  0  0  0
    1.0490   -0.0470    0.0310 N   0  0  0  0  0  0  0  0  0  0  0  0
    2.3510   -0.3830   -0.0570 C   0  0  0  0  0  0  0  0  0  0  0  0
    2.6690   -1.5430   -0.2300 O   0  0  0  0  0  0  0  0  0  0  0  0
    3.3950    0.6630    0.0580 C   0  0  0  0  0  0  0  0  0  0  0  0
    3.0080    2.0870    0.1500 C   0  0  0  0  0  0  0  0  0  0  0  0
    3.9140    3.0840    0.1310 C   0  0  0  0  0  0  0  0  0  0  0  0
    4.6540    0.3270    0.0780 N   0  0  0  0  0  0  0  0  0  0  0  0
    3.0530    4.6160    0.2620 S   0  0  0  0  0  0  0  0  0  0  0  0
    1.5200    3.7530    0.3330 C   0  0  0  0  0  0  0  0  0  0  0  0
    5.0300   -1.0230   -0.1260 O   0  0  0  0  0  0  0  0  0  0  0  0
    6.4400   -1.2470   -0.0790 C   0  0  0  0  0  0  0  0  0  0  0  0
    0.2740    4.3450    0.4490 N   0  0  0  0  0  0  0  0  0  0  0  0
    7.1250   -0.4180   -1.1670 C   0  0  0  0  0  0  0  0  0  0  0  0
    1.7370    2.4770    0.2540 N   0  0  0  0  0  0  0  0  0  0  0  0
    6.9770   -0.8310    1.2920 C   0  0  0  0  0  0  0  0  0  0  0  0
    6.7240   -2.7090   -0.3070 C   0  0  0  0  0  0  0  0  0  0  0  0
    7.9910   -3.1550   -0.3060 O   0  0  0  0  0  0  0  0  0  0  0  0
    5.8130   -3.4800   -0.4920 O   0  0  0  0  0  0  0  0  0  0  0  0
   -5.6120    0.0300    1.3130 C   0  0  0  0  0  0  0  0  0  0  0  0
   -4.5260   -2.3930    1.2280 C   0  0  0  0  0  0  0  0  0  0  0  0
   -4.9360   -2.6490    2.4870 O   0  0  0  0  0  0  0  0  0  0  0  0
   -4.9110   -3.0900    0.3100 O   0  0  0  0  0  0  0  0  0  0  0  0
   -1.0640   -2.2160   -1.5890 H   0  0  0  0  0  0  0  0  0  0  0  0
   -3.1460    1.6640    1.7680 H   0  0  0  0  0  0  0  0  0  0  0  0
   -4.0250    1.9160    0.2410 H   0  0  0  0  0  0  0  0  0  0  0  0
   -2.0610   -2.5110    0.4720 H   0  0  0  0  0  0  0  0  0  0  0  0
   -1.0010   -0.3230    1.7710 H   0  0  0  0  0  0  0  0  0  0  0  0
    0.3960   -1.9700    0.5540 H   0  0  0  0  0  0  0  0  0  0  0  0
    0.7910    0.8860    0.0940 H   0  0  0  0  0  0  0  0  0  0  0  0
    4.9840    2.9650    0.0490 H   0  0  0  0  0  0  0  0  0  0  0  0
    0.1990    5.3110    0.4990 H   0  0  0  0  0  0  0  0  0  0  0  0
   -0.5240    3.7950    0.4810 H   0  0  0  0  0  0  0  0  0  0  0  0
    6.9190    0.6400   -1.0020 H   0  0  0  0  0  0  0  0  0  0  0  0
    8.2010   -0.5890   -1.1310 H   0  0  0  0  0  0  0  0  0  0  0  0
    6.7430   -0.7140   -2.1440 H   0  0  0  0  0  0  0  0  0  0  0  0
    6.4890   -1.4220    2.0680 H   0  0  0  0  0  0  0  0  0  0  0  0
    8.0520   -1.0020    1.3290 H   0  0  0  0  0  0  0  0  0  0  0  0
    6.7710    0.2270    1.4580 H   0  0  0  0  0  0  0  0  0  0  0  0
    8.1230   -4.1010   -0.4560 H   0  0  0  0  0  0  0  0  0  0  0  0
   -5.9320   -0.8650    1.8470 H   0  0  0  0  0  0  0  0  0  0  0  0
   -5.8020    0.9090    1.9300 H   0  0  0  0  0  0  0  0  0  0  0  0
   -5.5350   -3.3980    2.6090 H   0  0  0  0  0  0  0  0  0  0  0  0
   -6.3570    0.1440    0.0570 N   0  3  0  0  0  0  0  0  0  0  0  0
   -6.8800   -0.9410   -0.4790 C   0  0  0  0  0  0  0  0  0  0  0  0
   -7.5900   -0.8730   -1.6630 C   0  0  0  0  0  0  0  0  0  0  0  0
   -7.7490    0.3560   -2.2860 C   0  0  0  0  0  0  0  0  0  0  0  0
   -7.1850    1.4740   -1.6910 C   0  0  0  0  0  0  0  0  0  0  0  0
   -6.4920    1.3290   -0.5040 C   0  0  0  0  0  0  0  0  0  0  0  0
   -6.7520   -1.8950    0.0120 H   0  0  0  0  0  0  0  0  0  0  0  0
   -8.0150   -1.7650   -2.0980 H   0  0  0  0  0  0  0  0  0  0  0  0
   -8.2980    0.4400   -3.2120 H   0  0  0  0  0  0  0  0  0  0  0  0
   -7.2880    2.4470   -2.1490 H   0  0  0  0  0  0  0  0  0  0  0  0
   -6.0530    2.1960   -0.0330 H   0  0  0  0  0  0  0  0  0  0  0  0
  1  2  2  0  0  0  0
  1  9  1  0  0  0  0
  1 32  1  0  0  0  0
  3  4  1  0  0  0  0
  3  8  1  0  0  0  0
  4  5  1  0  0  0  0
  4 33  1  0  0  0  0
  4 34  1  0  0  0  0
  5  6  2  0  0  0  0
  5 28  1  0  0  0  0
  6  7  1  0  0  0  0
  6 29  1  0  0  0  0
  7  8  1  0  0  0  0
  7 35  1  0  0  0  0
  8  9  1  0  0  0  0
  8 36  1  0  0  0  0
  9 10  1  0  0  0  0
  9 37  1  0  0  0  0
 10 11  1  0  0  0  0
 10 38  1  0  0  0  0
 11 12  2  0  0  0  0
 11 13  1  0  0  0  0
 13 14  1  0  0  0  0
 13 16  2  0  0  0  0
 14 15  2  0  0  0  0
 14 23  1  0  0  0  0
 15 17  1  0  0  0  0
 15 39  1  0  0  0  0
 16 19  1  0  0  0  0
 17 18  1  0  0  0  0
 18 21  1  0  0  0  0
 18 23  2  0  0  0  0
 19 20  1  0  0  0  0
 20 22  1  0  0  0  0
 20 24  1  0  0  0  0
 20 25  1  0  0  0  0
 21 40  1  0  0  0  0
 21 41  1  0  0  0  0
 22 42  1  0  0  0  0
 22 43  1  0  0  0  0
 22 44  1  0  0  0  0
 24 45  1  0  0  0  0
 24 46  1  0  0  0  0
 24 47  1  0  0  0  0
 25 26  1  0  0  0  0
 25 27  2  0  0  0  0
 26 48  1  0  0  0  0
 28 49  1  0  0  0  0
 28 50  1  0  0  0  0
 29 30  1  0  0  0  0
 29 31  2  0  0  0  0
 30 51  1  0  0  0  0
 28 52  1  0  0  0  0
 52 53  2  0  0  0  0
 52 57  1  0  0  0  0
 53 54  1  0  0  0  0
 54 55  2  0  0  0  0
 55 56  1  0  0  0  0
 56 57  2  0  0  0  0
 53 58  1  0  0  0  0
 54 59  1  0  0  0  0
 55 60  1  0  0  0  0
 56 61  1  0  0  0  0
 57 62  1  0  0  0  0
M  CHG  1  52   1
M  END
> <OPENEYE_ISO_SMILES>
CC(C)(C(=O)O)O/N=C(/c1csc(n1)N)\C(=O)N[C@H](C=O)[C@@H]2NC(=C(CS2)C[n+]3ccccc3)C(=O)O

> <OPENEYE_INCHI>
InChI=1S/C22H24N6O7S2/c1-22(2,20(33)34)35-27-16(14-11-37-21(23)25-14)17(30)24-13(9-29)18-26-15(19(31)32)12(10-36-18)8-28-6-4-3-5-7-28/h3-7,9,11,13,18,26H,8,10H2,1-2H3,(H4-,23,24,25,30,31,32,33,34)/p+1/b27-16-/t13-,18-/m1/s1

> <OPENEYE_INCHIKEY>
BJJNSFSVDFPVPL-QNLDICNMSA-O

> <FORMULA>
C22H25N6O7S2+

$$$$
