REMARK  6 active torsions:
REMARK  status: ('A' for Active; 'I' for Inactive)
REMARK    1  A    between atoms: B_1  and  O_2 
REMARK    2  A    between atoms: B_1  and  O_3 
REMARK    3  A    between atoms: B_1  and  C_4 
REMARK    4  A    between atoms: C_7  and  C_8 
REMARK    5  A    between atoms: C_9  and  C_10 
REMARK    6  A    between atoms: C_10  and  O_11 
ROOT
HETATM    1  C   UNL     1      -0.015   0.000   2.310  1.00  0.00    -0.032 A 
HETATM    2  C   UNL     1      -1.316   0.000   1.807  1.00  0.00     0.001 A 
HETATM    3  C   UNL     1      -1.529   0.000   0.447  1.00  0.00     0.011 A 
HETATM    4  C   UNL     1      -0.439   0.000  -0.430  1.00  0.00    -0.036 A 
HETATM    5  C   UNL     1       0.864   0.000   0.076  1.00  0.00     0.011 A 
HETATM    6  C   UNL     1       1.072   0.004   1.438  1.00  0.00     0.001 A 
ENDROOT
BRANCH   4   7
HETATM    7  C   UNL     1      -0.664   0.000  -1.885  1.00  0.00     0.018 C 
HETATM    8  C   UNL     1       0.385   0.000  -2.730  1.00  0.00     0.082 C 
BRANCH   8   9
HETATM    9  C   UNL     1       0.161   0.000  -4.177  1.00  0.00     0.165 C 
HETATM   10  O   UNL     1      -0.971   0.000  -4.617  1.00  0.00    -0.647 OA
BRANCH   9  11
HETATM   11  O   UNL     1       1.213   0.000  -5.022  1.00  0.00    -0.773 OA
HETATM   12  H   UNL     1       1.065   0.000  -5.978  1.00  0.00     0.167 HD
ENDBRANCH   9  11
ENDBRANCH   8   9
ENDBRANCH   4   7
BRANCH   1  13
HETATM   13  B   UNL     1       0.224   0.000   3.862  1.00  0.00     0.529 B 
BRANCH  13  14
HETATM   14  O   UNL     1       1.548  -0.001   4.376  1.00  0.00    -0.433 OA
HETATM   15  H   UNL     1       1.474  -0.001   5.340  1.00  0.00     0.185 HD
ENDBRANCH  13  14
BRANCH  13  16
HETATM   16  O   UNL     1      -0.882   0.000   4.752  1.00  0.00    -0.433 OA
HETATM   17  H   UNL     1      -0.520   0.000   5.648  1.00  0.00     0.185 HD
ENDBRANCH  13  16
ENDBRANCH   1  13
TORSDOF 6
