CVB
  -OEChem-07282321083D

 23 23  0     0  0  0  0  0  0999 V2000
    0.2240   -0.0000    3.8620 B   0  0  0  0  0  0  0  0  0  0  0  0
    1.5480   -0.0010    4.3760 O   0  0  0  0  0  0  0  0  0  0  0  0
   -0.8820   -0.0000    4.7520 O   0  0  0  0  0  0  0  0  0  0  0  0
   -0.0150   -0.0000    2.3100 C   0  0  0  0  0  0  0  0  0  0  0  0
   -1.3160    0.0000    1.8070 C   0  0  0  0  0  0  0  0  0  0  0  0
   -1.5290    0.0000    0.4470 C   0  0  0  0  0  0  0  0  0  0  0  0
   -0.4390   -0.0000   -0.4300 C   0  0  0  0  0  0  0  0  0  0  0  0
   -0.6640   -0.0000   -1.8850 C   0  0  0  0  0  0  0  0  0  0  0  0
    0.3850   -0.0000   -2.7300 C   0  0  0  0  0  0  0  0  0  0  0  0
    0.1610   -0.0000   -4.1770 C   0  0  0  0  0  0  0  0  0  0  0  0
    1.2130   -0.0000   -5.0220 O   0  0  0  0  0  0  0  0  0  0  0  0
   -0.9710    0.0000   -4.6170 O   0  0  0  0  0  0  0  0  0  0  0  0
    0.8640   -0.0000    0.0760 C   0  0  0  0  0  0  0  0  0  0  0  0
    1.0720    0.0040    1.4380 C   0  0  0  0  0  0  0  0  0  0  0  0
    1.4740   -0.0010    5.3400 H   0  0  0  0  0  0  0  0  0  0  0  0
   -0.5200   -0.0000    5.6480 H   0  0  0  0  0  0  0  0  0  0  0  0
   -2.1570    0.0000    2.4850 H   0  0  0  0  0  0  0  0  0  0  0  0
   -2.5360   -0.0000    0.0570 H   0  0  0  0  0  0  0  0  0  0  0  0
   -1.6710    0.0000   -2.2760 H   0  0  0  0  0  0  0  0  0  0  0  0
    1.3920   -0.0010   -2.3390 H   0  0  0  0  0  0  0  0  0  0  0  0
    1.0650   -0.0000   -5.9780 H   0  0  0  0  0  0  0  0  0  0  0  0
    1.7060   -0.0010   -0.5980 H   0  0  0  0  0  0  0  0  0  0  0  0
    2.0780    0.0050    1.8300 H   0  0  0  0  0  0  0  0  0  0  0  0
  1  2  1  0  0  0  0
  1  3  1  0  0  0  0
  1  4  1  0  0  0  0
  2 15  1  0  0  0  0
  3 16  1  0  0  0  0
  4  5  2  0  0  0  0
  4 14  1  0  0  0  0
  5  6  1  0  0  0  0
  5 17  1  0  0  0  0
  6  7  2  0  0  0  0
  6 18  1  0  0  0  0
  7  8  1  0  0  0  0
  7 13  1  0  0  0  0
  8  9  2  0  0  0  0
  8 19  1  0  0  0  0
  9 10  1  0  0  0  0
  9 20  1  0  0  0  0
 10 11  1  0  0  0  0
 10 12  2  0  0  0  0
 11 21  1  0  0  0  0
 13 14  2  0  0  0  0
 13 22  1  0  0  0  0
 14 23  1  0  0  0  0
M  END
> <OPENEYE_ISO_SMILES>
B(c1ccc(cc1)/C=C/C(=O)O)(O)O

> <OPENEYE_INCHI>
InChI=1S/C9H9BO4/c11-9(12)6-3-7-1-4-8(5-2-7)10(13)14/h1-6,13-14H,(H,11,12)/b6-3+

> <OPENEYE_INCHIKEY>
IEMLKNHGGSYOMP-ZZXKWVIFSA-N

> <FORMULA>
C9H9BO4

$$$$
