CXB
  -OEChem-07282321083D

 28 28  0     0  0  0  0  0  0999 V2000
   -0.5220    4.6830    0.4430 C   0  0  0  0  0  0  0  0  0  0  0  0
    0.1710    3.4630    0.1710 O   0  0  0  0  0  0  0  0  0  0  0  0
   -0.8080    2.4410    0.1110 N   0  0  0  0  0  0  0  0  0  0  0  0
   -0.4520    1.2110   -0.1260 C   0  0  0  0  0  0  0  0  0  0  0  0
    0.9560    0.9000   -0.4700 C   0  0  0  0  0  0  0  0  0  0  0  0
    1.8020    1.7700   -0.4100 O   0  0  0  0  0  0  0  0  0  0  0  0
    1.2980   -0.3470   -0.8490 N   0  0  0  0  0  0  0  0  0  0  0  0
    2.7060   -0.6850   -1.0720 C   0  0  0  0  0  0  0  0  0  0  0  0
    3.3040   -1.3210    0.2330 B   0  0  0  0  0  0  0  0  0  0  0  0
    2.4870   -1.4830    1.3830 O   0  0  0  0  0  0  0  0  0  0  0  0
    4.6630   -1.7330    0.2640 O   0  0  0  0  0  0  0  0  0  0  0  0
   -1.4520    0.1240   -0.0530 C   0  0  0  0  0  0  0  0  0  0  0  0
   -2.7840    0.4150    0.0690 C   0  0  0  0  0  0  0  0  0  0  0  0
   -3.4830   -1.2300    0.1070 S   0  0  0  0  0  0  0  0  0  0  0  0
   -1.9480   -2.1320   -0.0420 C   0  0  0  0  0  0  0  0  0  0  0  0
   -1.7370   -3.5000   -0.0820 N   0  0  0  0  0  0  0  0  0  0  0  0
   -1.0680   -1.1500   -0.1110 N   0  0  0  0  0  0  0  0  0  0  0  0
   -1.2390    4.8800   -0.3550 H   0  0  0  0  0  0  0  0  0  0  0  0
   -1.0500    4.5970    1.3920 H   0  0  0  0  0  0  0  0  0  0  0  0
    0.1940    5.5030    0.4980 H   0  0  0  0  0  0  0  0  0  0  0  0
    0.6120   -1.0210   -0.9740 H   0  0  0  0  0  0  0  0  0  0  0  0
    2.7830   -1.3990   -1.8920 H   0  0  0  0  0  0  0  0  0  0  0  0
    3.2610    0.2190   -1.3230 H   0  0  0  0  0  0  0  0  0  0  0  0
    1.6110   -1.1440    1.1540 H   0  0  0  0  0  0  0  0  0  0  0  0
    4.8260   -2.0920    1.1460 H   0  0  0  0  0  0  0  0  0  0  0  0
   -3.2770    1.3750    0.1280 H   0  0  0  0  0  0  0  0  0  0  0  0
   -2.4900   -4.1080   -0.0240 H   0  0  0  0  0  0  0  0  0  0  0  0
   -0.8360   -3.8500   -0.1670 H   0  0  0  0  0  0  0  0  0  0  0  0
  1  2  1  0  0  0  0
  1 18  1  0  0  0  0
  1 19  1  0  0  0  0
  1 20  1  0  0  0  0
  2  3  1  0  0  0  0
  3  4  2  0  0  0  0
  4  5  1  0  0  0  0
  4 12  1  0  0  0  0
  5  6  2  0  0  0  0
  5  7  1  0  0  0  0
  7  8  1  0  0  0  0
  7 21  1  0  0  0  0
  8  9  1  0  0  0  0
  8 22  1  0  0  0  0
  8 23  1  0  0  0  0
  9 10  1  0  0  0  0
  9 11  1  0  0  0  0
 10 24  1  0  0  0  0
 11 25  1  0  0  0  0
 12 13  2  0  0  0  0
 12 17  1  0  0  0  0
 13 14  1  0  0  0  0
 13 26  1  0  0  0  0
 14 15  1  0  0  0  0
 15 16  1  0  0  0  0
 15 17  2  0  0  0  0
 16 27  1  0  0  0  0
 16 28  1  0  0  0  0
M  END
> <OPENEYE_ISO_SMILES>
B(CNC(=O)/C(=N\OC)/c1csc(n1)N)(O)O

> <OPENEYE_INCHI>
InChI=1S/C7H11BN4O4S/c1-16-12-5(4-2-17-7(9)11-4)6(13)10-3-8(14)15/h2,14-15H,3H2,1H3,(H2,9,11)(H,10,13)/b12-5-

> <OPENEYE_INCHIKEY>
FMYGJTQJYFMFCR-XGICHPGQSA-N

> <FORMULA>
C7H11BN4O4S

$$$$
