CXU
  -OEChem-07282321083D

 49 51  0     1  0  0  0  0  0999 V2000
   -5.5530   -1.2920   -1.1850 Cl  0  0  0  0  0  0  0  0  0  0  0  0
    1.9030    2.3310    1.3980 C   0  0  0  0  0  0  0  0  0  0  0  0
    1.3610    3.3040    0.9320 O   0  0  0  0  0  0  0  0  0  0  0  0
    1.3070    0.9630    1.1870 C   0  0  1  0  0  0  0  0  0  0  0  0
    0.0790    1.0820    0.3980 N   0  0  0  0  0  0  0  0  0  0  0  0
    2.3090    0.0790    0.4420 C   0  0  1  0  0  0  0  0  0  0  0  0
    2.8430    0.8670   -1.1350 S   0  0  0  0  0  0  0  0  0  0  0  0
    4.4830    0.0390   -1.1740 C   0  0  0  0  0  0  0  0  0  0  0  0
    4.6850   -0.4300    0.2790 C   0  0  1  0  0  0  0  0  0  0  0  0
    3.6050    0.0020    1.1730 N   0  0  0  0  0  0  0  0  0  0  0  0
    4.7580   -1.9350    0.2990 C   0  0  0  0  0  0  0  0  0  0  0  0
   -1.0910    1.3550    1.0090 C   0  0  0  0  0  0  0  0  0  0  0  0
   -1.1270    1.5040    2.2150 O   0  0  0  0  0  0  0  0  0  0  0  0
   -2.3260    1.4750    0.2150 C   0  0  0  0  0  0  0  0  0  0  0  0
   -2.8620    2.5940   -0.3700 C   0  0  0  0  0  0  0  0  0  0  0  0
   -3.9840    2.2050   -0.9800 O   0  0  0  0  0  0  0  0  0  0  0  0
   -4.2120    1.0260   -0.8560 N   0  0  0  0  0  0  0  0  0  0  0  0
   -3.2910    0.4180   -0.1530 C   0  0  0  0  0  0  0  0  0  0  0  0
   -2.2960    3.9900   -0.3310 C   0  0  0  0  0  0  0  0  0  0  0  0
   -3.2300   -1.0210    0.2000 C   0  0  0  0  0  0  0  0  0  0  0  0
   -4.2310   -1.8910   -0.2320 C   0  0  0  0  0  0  0  0  0  0  0  0
   -4.1690   -3.2300    0.1000 C   0  0  0  0  0  0  0  0  0  0  0  0
   -3.1170   -3.7080    0.8600 C   0  0  0  0  0  0  0  0  0  0  0  0
   -2.1220   -2.8500    1.2910 C   0  0  0  0  0  0  0  0  0  0  0  0
   -2.1700   -1.5110    0.9600 C   0  0  0  0  0  0  0  0  0  0  0  0
    5.5770    1.0290   -1.5780 C   0  0  0  0  0  0  0  0  0  0  0  0
    4.4590   -1.1580   -2.1280 C   0  0  0  0  0  0  0  0  0  0  0  0
    5.9010   -2.5560   -0.0320 O   0  0  0  0  0  0  0  0  0  0  0  0
    3.7880   -2.5830    0.6140 O   0  0  0  0  0  0  0  0  0  0  0  0
    2.8180    2.4400    1.9620 H   0  0  0  0  0  0  0  0  0  0  0  0
    1.0760    0.5140    2.1540 H   0  0  0  0  0  0  0  0  0  0  0  0
    0.1070    0.9630   -0.5640 H   0  0  0  0  0  0  0  0  0  0  0  0
    1.8970   -0.9140    0.2650 H   0  0  0  0  0  0  0  0  0  0  0  0
    5.6280   -0.0300    0.6500 H   0  0  0  0  0  0  0  0  0  0  0  0
    3.8270    0.8850    1.6080 H   0  0  0  0  0  0  0  0  0  0  0  0
   -1.6260    4.1340   -1.1790 H   0  0  0  0  0  0  0  0  0  0  0  0
   -3.1090    4.7140   -0.3840 H   0  0  0  0  0  0  0  0  0  0  0  0
   -1.7420    4.1320    0.5970 H   0  0  0  0  0  0  0  0  0  0  0  0
   -4.9430   -3.9050   -0.2330 H   0  0  0  0  0  0  0  0  0  0  0  0
   -3.0720   -4.7560    1.1190 H   0  0  0  0  0  0  0  0  0  0  0  0
   -1.3030   -3.2290    1.8850 H   0  0  0  0  0  0  0  0  0  0  0  0
   -1.3920   -0.8420    1.2970 H   0  0  0  0  0  0  0  0  0  0  0  0
    5.5940    1.8590   -0.8720 H   0  0  0  0  0  0  0  0  0  0  0  0
    6.5430    0.5250   -1.5710 H   0  0  0  0  0  0  0  0  0  0  0  0
    5.3720    1.4080   -2.5790 H   0  0  0  0  0  0  0  0  0  0  0  0
    4.2360   -0.8140   -3.1380 H   0  0  0  0  0  0  0  0  0  0  0  0
    5.4310   -1.6500   -2.1180 H   0  0  0  0  0  0  0  0  0  0  0  0
    3.6920   -1.8630   -1.8070 H   0  0  0  0  0  0  0  0  0  0  0  0
    5.9000   -3.5220   -0.0050 H   0  0  0  0  0  0  0  0  0  0  0  0
  1 21  1  0  0  0  0
  2  3  2  0  0  0  0
  2  4  1  0  0  0  0
  2 30  1  0  0  0  0
  4  6  1  0  0  0  0
  4  5  1  0  0  0  0
  4 31  1  0  0  0  0
  5 12  1  0  0  0  0
  5 32  1  0  0  0  0
  6 10  1  0  0  0  0
  6  7  1  0  0  0  0
  6 33  1  0  0  0  0
  7  8  1  0  0  0  0
  8 27  1  0  0  0  0
  8 26  1  0  0  0  0
  8  9  1  0  0  0  0
  9 11  1  0  0  0  0
  9 10  1  0  0  0  0
  9 34  1  0  0  0  0
 10 35  1  0  0  0  0
 11 29  2  0  0  0  0
 11 28  1  0  0  0  0
 12 14  1  0  0  0  0
 12 13  2  0  0  0  0
 14 18  1  0  0  0  0
 14 15  2  0  0  0  0
 15 16  1  0  0  0  0
 15 19  1  0  0  0  0
 16 17  1  0  0  0  0
 17 18  2  0  0  0  0
 18 20  1  0  0  0  0
 19 36  1  0  0  0  0
 19 37  1  0  0  0  0
 19 38  1  0  0  0  0
 20 25  2  0  0  0  0
 20 21  1  0  0  0  0
 21 22  2  0  0  0  0
 22 23  1  0  0  0  0
 22 39  1  0  0  0  0
 23 24  2  0  0  0  0
 23 40  1  0  0  0  0
 24 25  1  0  0  0  0
 24 41  1  0  0  0  0
 25 42  1  0  0  0  0
 26 43  1  0  0  0  0
 26 44  1  0  0  0  0
 26 45  1  0  0  0  0
 27 46  1  0  0  0  0
 27 47  1  0  0  0  0
 27 48  1  0  0  0  0
 28 49  1  0  0  0  0
M  END
> <OPENEYE_ISO_SMILES>
Cc1c(c(no1)c2ccccc2Cl)C(=O)N[C@H](C=O)[C@@H]3N[C@H](C(S3)(C)C)C(=O)O

> <OPENEYE_INCHI>
InChI=1S/C19H20ClN3O5S/c1-9-13(14(23-28-9)10-6-4-5-7-11(10)20)16(25)21-12(8-24)17-22-15(18(26)27)19(2,3)29-17/h4-8,12,15,17,22H,1-3H3,(H,21,25)(H,26,27)/t12-,15+,17-/m1/s1

> <OPENEYE_INCHIKEY>
DMRXQBXKFQMOBD-ISTRZQFTSA-N

> <FORMULA>
C19H20ClN3O5S

$$$$
