CZ7
  -OEChem-07282321083D

 47 48  0     1  0  0  0  0  0999 V2000
    2.1590    1.3870   -0.7010 C   0  0  0  0  0  0  0  0  0  0  0  0
   -0.1050    0.5550   -0.4390 N   0  0  0  0  0  0  0  0  0  0  0  0
    1.7670    2.3580   -0.0900 O   0  0  0  0  0  0  0  0  0  0  0  0
    1.2150    0.2500   -0.9970 C   0  0  2  0  0  0  0  0  0  0  0  0
   -6.4830    0.2520    2.4020 C   0  0  0  0  0  0  0  0  0  0  0  0
   -1.1070   -0.7750   -1.9090 O   0  0  0  0  0  0  0  0  0  0  0  0
   -5.8730   -0.4560   -0.8260 O   0  0  0  0  0  0  0  0  0  0  0  0
   -3.4450   -1.0630   -1.9250 O   0  0  0  0  0  0  0  0  0  0  0  0
    3.1650   -4.4970    1.3240 O   0  0  0  0  0  0  0  0  0  0  0  0
    6.4800    2.6220    0.6380 O   0  0  0  0  0  0  0  0  0  0  0  0
    4.5800    1.3160    1.4940 O   0  0  0  0  0  0  0  0  0  0  0  0
    2.0160   -2.4250    1.5430 C   0  0  0  0  0  0  0  0  0  0  0  0
    2.9010   -3.1020   -0.5850 C   0  0  0  0  0  0  0  0  0  0  0  0
    1.5430   -1.2590    0.9720 C   0  0  0  0  0  0  0  0  0  0  0  0
    2.4160   -1.9400   -1.1530 C   0  0  0  0  0  0  0  0  0  0  0  0
   -6.1740    1.2380    1.2740 C   0  0  0  0  0  0  0  0  0  0  0  0
    4.3570    2.4300   -0.8340 C   0  0  0  0  0  0  0  0  0  0  0  0
   -3.7200    1.4360    1.1450 C   0  0  0  0  0  0  0  0  0  0  0  0
   -2.5390    1.1380    0.6150 C   0  0  0  0  0  0  0  0  0  0  0  0
    3.4390    1.3260   -1.1210 N   0  0  0  0  0  0  0  0  0  0  0  0
   -1.2080   -0.0110   -0.9690 C   0  0  0  0  0  0  0  0  0  0  0  0
   -4.8520    0.0330   -0.3850 C   0  0  0  0  0  0  0  0  0  0  0  0
   -3.5280   -0.2980   -0.9850 C   0  0  0  0  0  0  0  0  0  0  0  0
    2.6970   -3.3500    0.7650 C   0  0  0  0  0  0  0  0  0  0  0  0
    1.7430   -1.0170   -0.3740 C   0  0  0  0  0  0  0  0  0  0  0  0
    5.1650    2.1130    0.4740 B   0  0  0  0  0  0  0  0  0  0  0  0
   -4.8910    0.8900    0.6580 N   0  0  0  0  0  0  0  0  0  0  0  0
   -2.4220    0.2690   -0.4560 N   0  0  0  0  0  0  0  0  0  0  0  0
   -0.1860    1.1640    0.3110 H   0  0  0  0  0  0  0  0  0  0  0  0
    1.1320    0.1180   -2.0750 H   0  0  0  0  0  0  0  0  0  0  0  0
   -5.6940    0.3010    3.1530 H   0  0  0  0  0  0  0  0  0  0  0  0
   -7.4370    0.5120    2.8600 H   0  0  0  0  0  0  0  0  0  0  0  0
   -6.5370   -0.7580    1.9970 H   0  0  0  0  0  0  0  0  0  0  0  0
    4.0630   -4.4260    1.6750 H   0  0  0  0  0  0  0  0  0  0  0  0
    6.8970    2.3740    1.4740 H   0  0  0  0  0  0  0  0  0  0  0  0
    5.1530    1.1750    2.2600 H   0  0  0  0  0  0  0  0  0  0  0  0
    1.8610   -2.6140    2.5950 H   0  0  0  0  0  0  0  0  0  0  0  0
    3.4300   -3.8200   -1.1930 H   0  0  0  0  0  0  0  0  0  0  0  0
    1.0170   -0.5370    1.5780 H   0  0  0  0  0  0  0  0  0  0  0  0
    2.5740   -1.7460   -2.2040 H   0  0  0  0  0  0  0  0  0  0  0  0
   -6.9620    1.1900    0.5220 H   0  0  0  0  0  0  0  0  0  0  0  0
   -6.1200    2.2490    1.6790 H   0  0  0  0  0  0  0  0  0  0  0  0
    5.0490    2.5540   -1.6670 H   0  0  0  0  0  0  0  0  0  0  0  0
    3.7880    3.3490   -0.6950 H   0  0  0  0  0  0  0  0  0  0  0  0
   -3.7660    2.1190    1.9800 H   0  0  0  0  0  0  0  0  0  0  0  0
   -1.6480    1.5850    1.0310 H   0  0  0  0  0  0  0  0  0  0  0  0
    3.7510    0.5510   -1.6140 H   0  0  0  0  0  0  0  0  0  0  0  0
  1  3  2  0  0  0  0
  1  4  1  0  0  0  0
  1 20  1  0  0  0  0
  2  4  1  0  0  0  0
  2 21  1  0  0  0  0
  2 29  1  0  0  0  0
  4 25  1  0  0  0  0
  4 30  1  0  0  0  0
  5 16  1  0  0  0  0
  5 31  1  0  0  0  0
  5 32  1  0  0  0  0
  5 33  1  0  0  0  0
  6 21  2  0  0  0  0
  7 22  2  0  0  0  0
  8 23  2  0  0  0  0
  9 24  1  0  0  0  0
  9 34  1  0  0  0  0
 10 26  1  0  0  0  0
 10 35  1  0  0  0  0
 11 26  1  0  0  0  0
 11 36  1  0  0  0  0
 12 24  2  0  0  0  0
 12 14  1  0  0  0  0
 12 37  1  0  0  0  0
 13 24  1  0  0  0  0
 13 15  2  0  0  0  0
 13 38  1  0  0  0  0
 14 25  2  0  0  0  0
 14 39  1  0  0  0  0
 15 25  1  0  0  0  0
 15 40  1  0  0  0  0
 16 27  1  0  0  0  0
 16 41  1  0  0  0  0
 16 42  1  0  0  0  0
 17 20  1  0  0  0  0
 17 26  1  0  0  0  0
 17 43  1  0  0  0  0
 17 44  1  0  0  0  0
 18 27  1  0  0  0  0
 18 19  2  0  0  0  0
 18 45  1  0  0  0  0
 19 28  1  0  0  0  0
 19 46  1  0  0  0  0
 20 47  1  0  0  0  0
 21 28  1  0  0  0  0
 22 23  1  0  0  0  0
 22 27  1  0  0  0  0
 23 28  1  0  0  0  0
M  END
> <OPENEYE_ISO_SMILES>
B(CNC(=O)[C@@H](c1ccc(cc1)O)NC(=O)n2ccn(c(=O)c2=O)CC)(O)O

> <OPENEYE_INCHI>
InChI=1S/C16H19BN4O7/c1-2-20-7-8-21(15(25)14(20)24)16(26)19-12(13(23)18-9-17(27)28)10-3-5-11(22)6-4-10/h3-8,12,22,27-28H,2,9H2,1H3,(H,18,23)(H,19,26)/t12-/m1/s1

> <OPENEYE_INCHIKEY>
VFZCHJQIIUDDPB-GFCCVEGCSA-N

> <FORMULA>
C16H19BN4O7

$$$$
