CZ8
  -OEChem-07282321083D

 55 56  0     1  0  0  0  0  0999 V2000
    0.9700    2.2980   -0.3630 C   0  0  0  0  0  0  0  0  0  0  0  0
   -0.4600    0.3430   -0.2200 N   0  0  0  0  0  0  0  0  0  0  0  0
    0.1730    2.8130    0.3930 O   0  0  0  0  0  0  0  0  0  0  0  0
    0.7620    0.8780   -0.8240 C   0  0  2  0  0  0  0  0  0  0  0  0
    1.9580    0.0230   -0.4000 C   0  0  0  0  0  0  0  0  0  0  0  0
   -6.2230   -2.9380    1.3980 C   0  0  0  0  0  0  0  0  0  0  0  0
   -1.7300    1.2940   -1.7740 O   0  0  0  0  0  0  0  0  0  0  0  0
   -6.2180   -0.4770   -0.9450 O   0  0  0  0  0  0  0  0  0  0  0  0
   -3.9910    0.6850   -2.0260 O   0  0  0  0  0  0  0  0  0  0  0  0
    6.2080   -4.5350    0.5860 O   0  0  0  0  0  0  0  0  0  0  0  0
    3.7270    3.1670    1.4000 O   0  0  0  0  0  0  0  0  0  0  0  0
    3.5540    5.6180    1.5120 O   0  0  0  0  0  0  0  0  0  0  0  0
    4.0100   -3.7260    1.0050 C   0  0  0  0  0  0  0  0  0  0  0  0
    5.1950   -3.0480   -0.9710 C   0  0  0  0  0  0  0  0  0  0  0  0
    2.9320   -2.9520    0.6200 C   0  0  0  0  0  0  0  0  0  0  0  0
    4.1150   -2.2760   -1.3510 C   0  0  0  0  0  0  0  0  0  0  0  0
   -6.3200   -1.4230    1.5880 C   0  0  0  0  0  0  0  0  0  0  0  0
    1.8060   -1.3860   -0.9750 C   0  0  0  0  0  0  0  0  0  0  0  0
    2.2420    4.3760   -0.3450 C   0  0  0  0  0  0  0  0  0  0  0  0
   -3.9460   -0.5570    1.7820 C   0  0  0  0  0  0  0  0  0  0  0  0
   -2.6950   -0.7800    0.9370 C   0  0  0  0  0  0  0  0  0  0  0  0
    2.0390    2.9970   -0.7930 N   0  0  0  0  0  0  0  0  0  0  0  0
   -1.6550    0.5700   -0.8000 C   0  0  0  0  0  0  0  0  0  0  0  0
   -5.1890   -0.3940   -0.3080 C   0  0  0  0  0  0  0  0  0  0  0  0
   -3.9440    0.1360   -0.9450 C   0  0  0  0  0  0  0  0  0  0  0  0
    3.2050    4.3870    0.8950 B   0  0  0  0  0  0  0  0  0  0  0  0
    5.1460   -3.7750    0.2100 C   0  0  0  0  0  0  0  0  0  0  0  0
    2.9840   -2.2280   -0.5570 C   0  0  0  0  0  0  0  0  0  0  0  0
   -5.1510   -0.7800    0.9830 N   0  0  0  0  0  0  0  0  0  0  0  0
   -2.7670   -0.0050   -0.3020 N   0  0  0  0  0  0  0  0  0  0  0  0
   -0.4100   -0.1760    0.5990 H   0  0  0  0  0  0  0  0  0  0  0  0
    0.6690    0.8590   -1.9100 H   0  0  0  0  0  0  0  0  0  0  0  0
    2.8770    0.4720   -0.7760 H   0  0  0  0  0  0  0  0  0  0  0  0
    1.9980   -0.0300    0.6880 H   0  0  0  0  0  0  0  0  0  0  0  0
   -6.1910   -3.1700    0.3340 H   0  0  0  0  0  0  0  0  0  0  0  0
   -5.3170   -3.3070    1.8780 H   0  0  0  0  0  0  0  0  0  0  0  0
   -7.0930   -3.4170    1.8480 H   0  0  0  0  0  0  0  0  0  0  0  0
    6.1780   -5.4440    0.2570 H   0  0  0  0  0  0  0  0  0  0  0  0
    4.3100    3.2740    2.1640 H   0  0  0  0  0  0  0  0  0  0  0  0
    4.1510    5.5240    2.2670 H   0  0  0  0  0  0  0  0  0  0  0  0
    3.9700   -4.2880    1.9260 H   0  0  0  0  0  0  0  0  0  0  0  0
    6.0780   -3.0850   -1.5920 H   0  0  0  0  0  0  0  0  0  0  0  0
    2.0480   -2.9130    1.2390 H   0  0  0  0  0  0  0  0  0  0  0  0
    4.1530   -1.7100   -2.2700 H   0  0  0  0  0  0  0  0  0  0  0  0
   -7.2270   -1.0540    1.1080 H   0  0  0  0  0  0  0  0  0  0  0  0
   -6.3530   -1.1910    2.6520 H   0  0  0  0  0  0  0  0  0  0  0  0
    0.8870   -1.8350   -0.5980 H   0  0  0  0  0  0  0  0  0  0  0  0
    1.7650   -1.3330   -2.0630 H   0  0  0  0  0  0  0  0  0  0  0  0
    2.6830    4.9600   -1.1530 H   0  0  0  0  0  0  0  0  0  0  0  0
    1.2830    4.8110   -0.0640 H   0  0  0  0  0  0  0  0  0  0  0  0
   -3.9400   -1.2500    2.6240 H   0  0  0  0  0  0  0  0  0  0  0  0
   -3.9480    0.4660    2.1590 H   0  0  0  0  0  0  0  0  0  0  0  0
   -1.8170   -0.4710    1.5050 H   0  0  0  0  0  0  0  0  0  0  0  0
   -2.6100   -1.8390    0.6930 H   0  0  0  0  0  0  0  0  0  0  0  0
    2.6740    2.5860   -1.4010 H   0  0  0  0  0  0  0  0  0  0  0  0
  1  3  2  0  0  0  0
  1  4  1  0  0  0  0
  1 22  1  0  0  0  0
  2  4  1  0  0  0  0
  2 23  1  0  0  0  0
  2 31  1  0  0  0  0
  4  5  1  0  0  0  0
  4 32  1  0  0  0  0
  5 18  1  0  0  0  0
  5 33  1  0  0  0  0
  5 34  1  0  0  0  0
  6 17  1  0  0  0  0
  6 35  1  0  0  0  0
  6 36  1  0  0  0  0
  6 37  1  0  0  0  0
  7 23  2  0  0  0  0
  8 24  2  0  0  0  0
  9 25  2  0  0  0  0
 10 27  1  0  0  0  0
 10 38  1  0  0  0  0
 11 26  1  0  0  0  0
 11 39  1  0  0  0  0
 12 26  1  0  0  0  0
 12 40  1  0  0  0  0
 13 27  2  0  0  0  0
 13 15  1  0  0  0  0
 13 41  1  0  0  0  0
 14 27  1  0  0  0  0
 14 16  2  0  0  0  0
 14 42  1  0  0  0  0
 15 28  2  0  0  0  0
 15 43  1  0  0  0  0
 16 28  1  0  0  0  0
 16 44  1  0  0  0  0
 17 29  1  0  0  0  0
 17 45  1  0  0  0  0
 17 46  1  0  0  0  0
 18 28  1  0  0  0  0
 18 47  1  0  0  0  0
 18 48  1  0  0  0  0
 19 22  1  0  0  0  0
 19 26  1  0  0  0  0
 19 49  1  0  0  0  0
 19 50  1  0  0  0  0
 20 29  1  0  0  0  0
 20 21  1  0  0  0  0
 20 51  1  0  0  0  0
 20 52  1  0  0  0  0
 21 30  1  0  0  0  0
 21 53  1  0  0  0  0
 21 54  1  0  0  0  0
 22 55  1  0  0  0  0
 23 30  1  0  0  0  0
 24 25  1  0  0  0  0
 24 29  1  0  0  0  0
 25 30  1  0  0  0  0
M  END
> <OPENEYE_ISO_SMILES>
B(CNC(=O)[C@@H](CCc1ccc(cc1)O)NC(=O)N2CCN(C(=O)C2=O)CC)(O)O

> <OPENEYE_INCHI>
InChI=1S/C18H25BN4O7/c1-2-22-9-10-23(17(27)16(22)26)18(28)21-14(15(25)20-11-19(29)30)8-5-12-3-6-13(24)7-4-12/h3-4,6-7,14,24,29-30H,2,5,8-11H2,1H3,(H,20,25)(H,21,28)/t14-/m1/s1

> <OPENEYE_INCHIKEY>
RSVZQUMTCHOFDU-CQSZACIVSA-N

> <FORMULA>
C18H25BN4O7

$$$$
