CZ9
  -OEChem-07282321083D

 52 53  0     1  0  0  0  0  0999 V2000
    2.5060    1.1150   -0.3980 C   0  0  0  0  0  0  0  0  0  0  0  0
    0.3340    0.1450    0.0780 N   0  0  0  0  0  0  0  0  0  0  0  0
    2.0280    2.1460    0.0250 O   0  0  0  0  0  0  0  0  0  0  0  0
    1.6720   -0.1390   -0.4450 C   0  0  2  0  0  0  0  0  0  0  0  0
    2.3340   -1.2240    0.4070 C   0  0  0  0  0  0  0  0  0  0  0  0
    1.5680   -2.5130    0.2630 C   0  0  0  0  0  0  0  0  0  0  0  0
   -0.5300   -6.0430   -0.1330 O   0  0  0  0  0  0  0  0  0  0  0  0
    0.1610   -4.8810   -0.0020 C   0  0  0  0  0  0  0  0  0  0  0  0
   -6.3120    0.4330    1.6130 C   0  0  0  0  0  0  0  0  0  0  0  0
   -0.3350    0.9560   -1.8780 O   0  0  0  0  0  0  0  0  0  0  0  0
   -5.1440    1.6910   -1.3210 O   0  0  0  0  0  0  0  0  0  0  0  0
   -2.6200    1.3330   -2.3110 O   0  0  0  0  0  0  0  0  0  0  0  0
    5.3320    1.2570    1.4600 O   0  0  0  0  0  0  0  0  0  0  0  0
    6.3080    3.4180    0.8080 O   0  0  0  0  0  0  0  0  0  0  0  0
   -5.7010    1.8060    1.3240 C   0  0  0  0  0  0  0  0  0  0  0  0
    4.5930    2.3120   -0.7870 C   0  0  0  0  0  0  0  0  0  0  0  0
   -3.1970    1.5730    1.6460 C   0  0  0  0  0  0  0  0  0  0  0  0
   -2.1810    0.5610    1.1260 C   0  0  0  0  0  0  0  0  0  0  0  0
    3.7820    1.0930   -0.8330 N   0  0  0  0  0  0  0  0  0  0  0  0
   -0.6140    0.6510   -0.7350 C   0  0  0  0  0  0  0  0  0  0  0  0
   -4.2010    1.5330   -0.5750 C   0  0  0  0  0  0  0  0  0  0  0  0
   -2.8430    1.2220   -1.1240 C   0  0  0  0  0  0  0  0  0  0  0  0
    5.4380    2.3300    0.5360 B   0  0  0  0  0  0  0  0  0  0  0  0
   -4.3600    1.6340    0.7600 N   0  0  0  0  0  0  0  0  0  0  0  0
   -1.8720    0.8180   -0.2810 N   0  0  0  0  0  0  0  0  0  0  0  0
    1.9090   -3.4110   -0.7320 C   0  0  0  0  0  0  0  0  0  0  0  0
    0.5280   -2.7990    1.1290 C   0  0  0  0  0  0  0  0  0  0  0  0
    1.2080   -4.5940   -0.8660 C   0  0  0  0  0  0  0  0  0  0  0  0
   -0.1760   -3.9810    0.9980 C   0  0  0  0  0  0  0  0  0  0  0  0
    0.1300   -0.0320    1.0100 H   0  0  0  0  0  0  0  0  0  0  0  0
    1.5940   -0.4850   -1.4760 H   0  0  0  0  0  0  0  0  0  0  0  0
    3.3610   -1.3720    0.0740 H   0  0  0  0  0  0  0  0  0  0  0  0
    2.3320   -0.9150    1.4530 H   0  0  0  0  0  0  0  0  0  0  0  0
   -0.1660   -6.7770    0.3810 H   0  0  0  0  0  0  0  0  0  0  0  0
   -7.3100    0.5610    2.0330 H   0  0  0  0  0  0  0  0  0  0  0  0
   -6.3780   -0.1370    0.6860 H   0  0  0  0  0  0  0  0  0  0  0  0
   -5.6830   -0.1020    2.3250 H   0  0  0  0  0  0  0  0  0  0  0  0
    5.8900    1.3560    2.2430 H   0  0  0  0  0  0  0  0  0  0  0  0
    6.7850    3.3400    1.6450 H   0  0  0  0  0  0  0  0  0  0  0  0
   -6.3290    2.3410    0.6130 H   0  0  0  0  0  0  0  0  0  0  0  0
   -5.6350    2.3760    2.2510 H   0  0  0  0  0  0  0  0  0  0  0  0
    5.2630    2.3350   -1.6470 H   0  0  0  0  0  0  0  0  0  0  0  0
    3.9390    3.1840   -0.8120 H   0  0  0  0  0  0  0  0  0  0  0  0
   -3.5210    1.2780    2.6440 H   0  0  0  0  0  0  0  0  0  0  0  0
   -2.7310    2.5580    1.6950 H   0  0  0  0  0  0  0  0  0  0  0  0
   -1.2660    0.6360    1.7140 H   0  0  0  0  0  0  0  0  0  0  0  0
   -2.5910   -0.4440    1.2260 H   0  0  0  0  0  0  0  0  0  0  0  0
    4.1630    0.2690   -1.1750 H   0  0  0  0  0  0  0  0  0  0  0  0
    2.7240   -3.1880   -1.4040 H   0  0  0  0  0  0  0  0  0  0  0  0
    0.2670   -2.0980    1.9080 H   0  0  0  0  0  0  0  0  0  0  0  0
    1.4720   -5.2930   -1.6460 H   0  0  0  0  0  0  0  0  0  0  0  0
   -0.9880   -4.2030    1.6750 H   0  0  0  0  0  0  0  0  0  0  0  0
  1  3  2  0  0  0  0
  1  4  1  0  0  0  0
  1 19  1  0  0  0  0
  2  4  1  0  0  0  0
  2 20  1  0  0  0  0
  2 30  1  0  0  0  0
  4  5  1  0  0  0  0
  4 31  1  0  0  0  0
  5  6  1  0  0  0  0
  5 32  1  0  0  0  0
  5 33  1  0  0  0  0
  6 27  2  0  0  0  0
  6 26  1  0  0  0  0
  7  8  1  0  0  0  0
  7 34  1  0  0  0  0
  8 29  2  0  0  0  0
  8 28  1  0  0  0  0
  9 15  1  0  0  0  0
  9 35  1  0  0  0  0
  9 36  1  0  0  0  0
  9 37  1  0  0  0  0
 10 20  2  0  0  0  0
 11 21  2  0  0  0  0
 12 22  2  0  0  0  0
 13 23  1  0  0  0  0
 13 38  1  0  0  0  0
 14 23  1  0  0  0  0
 14 39  1  0  0  0  0
 15 24  1  0  0  0  0
 15 40  1  0  0  0  0
 15 41  1  0  0  0  0
 16 19  1  0  0  0  0
 16 23  1  0  0  0  0
 16 42  1  0  0  0  0
 16 43  1  0  0  0  0
 17 24  1  0  0  0  0
 17 18  1  0  0  0  0
 17 44  1  0  0  0  0
 17 45  1  0  0  0  0
 18 25  1  0  0  0  0
 18 46  1  0  0  0  0
 18 47  1  0  0  0  0
 19 48  1  0  0  0  0
 20 25  1  0  0  0  0
 21 22  1  0  0  0  0
 21 24  1  0  0  0  0
 22 25  1  0  0  0  0
 26 28  2  0  0  0  0
 26 49  1  0  0  0  0
 27 29  1  0  0  0  0
 27 50  1  0  0  0  0
 28 51  1  0  0  0  0
 29 52  1  0  0  0  0
M  END
> <OPENEYE_ISO_SMILES>
B(CNC(=O)[C@@H](Cc1ccc(cc1)O)NC(=O)N2CCN(C(=O)C2=O)CC)(O)O

> <OPENEYE_INCHI>
InChI=1S/C17H23BN4O7/c1-2-21-7-8-22(16(26)15(21)25)17(27)20-13(14(24)19-10-18(28)29)9-11-3-5-12(23)6-4-11/h3-6,13,23,28-29H,2,7-10H2,1H3,(H,19,24)(H,20,27)/t13-/m1/s1

> <OPENEYE_INCHIKEY>
INXKLMQPFNYGIK-CYBMUJFWSA-N

> <FORMULA>
C17H23BN4O7

$$$$
