DGF
  -OEChem-07282321083D

 36 37  0     1  0  0  0  0  0999 V2000
   -2.9570    1.8800    0.6330 C   0  0  0  0  0  0  0  0  0  0  0  0
   -3.5710    2.4390   -0.6800 C   0  0  0  0  0  0  0  0  0  0  0  0
   -2.6540    1.8240   -1.7590 C   0  0  0  0  0  0  0  0  0  0  0  0
   -2.0170    0.6770   -1.1830 O   0  0  0  0  0  0  0  0  0  0  0  0
   -2.4800    0.4830    0.1620 C   0  0  1  0  0  0  0  0  0  0  0  0
   -1.3380   -0.0150    1.0500 C   0  0  2  0  0  0  0  0  0  0  0  0
    0.1260    1.0910    0.9230 S   0  0  0  0  0  0  0  0  0  0  0  0
   -0.7780   -1.3260    0.5300 C   0  0  0  0  0  0  0  0  0  0  0  0
   -1.6710   -2.4350    0.1180 C   0  0  0  0  0  0  0  0  0  0  0  0
   -2.8760   -2.3030    0.1920 O   0  0  0  0  0  0  0  0  0  0  0  0
   -1.1470   -3.5880   -0.3400 O   0  0  0  0  0  0  0  0  0  0  0  0
    0.4730   -1.4370    0.4630 N   0  0  0  0  0  0  0  0  0  0  0  0
    1.3190   -0.3090    0.8860 C   0  0  1  0  0  0  0  0  0  0  0  0
    2.4290   -0.0500   -0.1350 C   0  0  1  0  0  0  0  0  0  0  0  0
    3.2590    1.1560    0.3100 C   0  0  1  0  0  0  0  0  0  0  0  0
    4.3690    1.4150   -0.7100 C   0  0  0  0  0  0  0  0  0  0  0  0
    2.4170    2.3070    0.4000 O   0  0  0  0  0  0  0  0  0  0  0  0
    3.3170   -1.2630   -0.2300 C   0  0  0  0  0  0  0  0  0  0  0  0
    3.4400   -1.8400   -1.2830 O   0  0  0  0  0  0  0  0  0  0  0  0
   -2.1160    2.4910    0.9640 H   0  0  0  0  0  0  0  0  0  0  0  0
   -3.7100    1.7960    1.4150 H   0  0  0  0  0  0  0  0  0  0  0  0
   -4.5990    2.0970   -0.8030 H   0  0  0  0  0  0  0  0  0  0  0  0
   -3.5180    3.5280   -0.7000 H   0  0  0  0  0  0  0  0  0  0  0  0
   -3.2490    1.5230   -2.6210 H   0  0  0  0  0  0  0  0  0  0  0  0
   -1.9020    2.5520   -2.0640 H   0  0  0  0  0  0  0  0  0  0  0  0
   -3.3090   -0.2250    0.1790 H   0  0  0  0  0  0  0  0  0  0  0  0
   -1.7700   -4.2810   -0.5970 H   0  0  0  0  0  0  0  0  0  0  0  0
    1.7360   -0.4880    1.8760 H   0  0  0  0  0  0  0  0  0  0  0  0
    1.9860    0.1540   -1.1100 H   0  0  0  0  0  0  0  0  0  0  0  0
    3.7020    0.9530    1.2850 H   0  0  0  0  0  0  0  0  0  0  0  0
    3.9270    1.6190   -1.6850 H   0  0  0  0  0  0  0  0  0  0  0  0
    4.9610    2.2740   -0.3930 H   0  0  0  0  0  0  0  0  0  0  0  0
    5.0120    0.5370   -0.7790 H   0  0  0  0  0  0  0  0  0  0  0  0
    1.9890    2.5470   -0.4330 H   0  0  0  0  0  0  0  0  0  0  0  0
    3.8430   -1.6170    0.6450 H   0  0  0  0  0  0  0  0  0  0  0  0
   -1.6650   -0.1140    2.0850 H   0  0  0  0  0  0  0  0  0  0  0  0
 15 17  1  0  0  0  0
  7 13  1  0  0  0  0
  6  7  1  0  0  0  0
 12 13  1  0  0  0  0
 13 14  1  0  0  0  0
  1  2  1  0  0  0  0
  2  3  1  0  0  0  0
  8 12  2  0  0  0  0
 15 16  1  0  0  0  0
  1  5  1  0  0  0  0
  6  8  1  0  0  0  0
  5  6  1  0  0  0  0
  8  9  1  0  0  0  0
 14 15  1  0  0  0  0
  3  4  1  0  0  0  0
  4  5  1  0  0  0  0
  9 10  2  0  0  0  0
  9 11  1  0  0  0  0
 14 18  1  0  0  0  0
 18 19  2  0  0  0  0
  1 20  1  0  0  0  0
  1 21  1  0  0  0  0
  2 22  1  0  0  0  0
  2 23  1  0  0  0  0
  3 24  1  0  0  0  0
  3 25  1  0  0  0  0
  5 26  1  0  0  0  0
 11 27  1  0  0  0  0
 13 28  1  0  0  0  0
 14 29  1  0  0  0  0
 15 30  1  0  0  0  0
 16 31  1  0  0  0  0
 16 32  1  0  0  0  0
 16 33  1  0  0  0  0
 17 34  1  0  0  0  0
 18 35  1  0  0  0  0
  6 36  1  0  0  0  0
M  END
> <OPENEYE_ISO_SMILES>
C[C@H]([C@@H](C=O)[C@@H]1N=C([C@@H](S1)[C@H]2CCCO2)C(=O)O)O

> <OPENEYE_INCHI>
InChI=1S/C12H17NO5S/c1-6(15)7(5-14)11-13-9(12(16)17)10(19-11)8-3-2-4-18-8/h5-8,10-11,15H,2-4H2,1H3,(H,16,17)/t6-,7-,8-,10+,11-/m1/s1

> <OPENEYE_INCHIKEY>
FHQOUTNMKXYVEY-MKSGQPMJSA-N

> <FORMULA>
C12H17NO5S

$$$$
