REMARK  7 active torsions:
REMARK  status: ('A' for Active; 'I' for Inactive)
REMARK    1  A    between atoms: C_5  and  C_6 
REMARK    2  A    between atoms: CA_8  and  C_9 
REMARK    3  A    between atoms: C_9  and  OXT_11 
REMARK    4  A    between atoms: C_13  and  C_14 
REMARK    5  A    between atoms: C_14  and  C_15 
REMARK    6  A    between atoms: C_14  and  C_18 
REMARK    7  A    between atoms: C_15  and  O_17 
ROOT
HETATM    1  C   UNL     1      -1.338  -0.015   1.050  1.00  0.00     0.137 C 
HETATM    2  S   UNL     1       0.126   1.091   0.923  1.00  0.00    -0.127 SA
HETATM    3  CA  UNL     1      -0.778  -1.326   0.530  1.00  0.00     0.119 C 
HETATM    4  N   UNL     1       0.473  -1.437   0.463  1.00  0.00    -0.269 NA
HETATM    5  C   UNL     1       1.319  -0.309   0.886  1.00  0.00     0.183 C 
ENDROOT
BRANCH   5   6
HETATM    6  C   UNL     1       2.429  -0.050  -0.135  1.00  0.00     0.110 C 
BRANCH   6   7
HETATM    7  C   UNL     1       3.259   1.156   0.310  1.00  0.00     0.127 C 
HETATM    8  C   UNL     1       4.369   1.415  -0.710  1.00  0.00     0.040 C 
BRANCH   7   9
HETATM    9  O   UNL     1       2.417   2.307   0.400  1.00  0.00    -0.395 OA
HETATM   10  H   UNL     1       1.989   2.547  -0.433  1.00  0.00     0.210 HD
ENDBRANCH   7   9
ENDBRANCH   6   7
BRANCH   6  11
HETATM   11  C   UNL     1       3.317  -1.263  -0.230  1.00  0.00     0.241 C 
HETATM   12  O   UNL     1       3.440  -1.840  -1.283  1.00  0.00    -0.306 OA
ENDBRANCH   6  11
ENDBRANCH   5   6
BRANCH   1  13
HETATM   13  C   UNL     1      -2.480   0.483   0.162  1.00  0.00     0.141 C 
HETATM   14  C   UNL     1      -2.957   1.880   0.633  1.00  0.00     0.035 C 
HETATM   15  C   UNL     1      -3.571   2.439  -0.680  1.00  0.00     0.029 C 
HETATM   16  C   UNL     1      -2.654   1.824  -1.759  1.00  0.00     0.168 C 
HETATM   17  O   UNL     1      -2.017   0.677  -1.183  1.00  0.00    -0.384 OA
ENDBRANCH   1  13
BRANCH   3  18
HETATM   18  C   UNL     1      -1.671  -2.435   0.118  1.00  0.00     0.192 C 
HETATM   19  O   UNL     1      -2.876  -2.303   0.192  1.00  0.00    -0.645 OA
BRANCH  18  20
HETATM   20  OXT UNL     1      -1.147  -3.588  -0.340  1.00  0.00    -0.772 OA
HETATM   21  HXT UNL     1      -1.770  -4.281  -0.597  1.00  0.00     0.167 HD
ENDBRANCH  18  20
ENDBRANCH   3  18
TORSDOF 7
