DH4
  -OEChem-07282321083D

 47 48  0     1  0  0  0  0  0999 V2000
   -0.1480   -0.1070   -2.0040 C   0  0  0  0  0  0  0  0  0  0  0  0
    1.3240   -0.3930   -0.0960 N   0  0  0  0  0  0  0  0  0  0  0  0
    0.5260    0.8630   -2.2530 O   0  0  0  0  0  0  0  0  0  0  0  0
    0.1640   -0.9510   -0.7950 C   0  0  1  0  0  0  0  0  0  0  0  0
    2.3910   -1.1070    0.0580 C   0  0  0  0  0  0  0  0  0  0  0  0
    5.7960    0.2920   -0.5600 C   0  0  0  0  0  0  0  0  0  0  0  0
    5.3240    1.6550   -0.0610 C   0  0  0  0  0  0  0  0  0  0  0  0
    5.9760   -0.6370    0.6160 C   0  0  0  0  0  0  0  0  0  0  0  0
    3.8690    1.7600    0.1290 C   0  0  0  0  0  0  0  0  0  0  0  0
    4.6790   -1.4260    0.8700 C   0  0  0  0  0  0  0  0  0  0  0  0
    3.3950    0.7670    1.2190 C   0  0  0  0  0  0  0  0  0  0  0  0
    3.4760   -0.5850    0.7120 N   0  0  0  0  0  0  0  0  0  0  0  0
   -0.9760   -0.3680   -2.6450 H   0  0  0  0  0  0  0  0  0  0  0  0
    0.3860   -1.9700   -1.1110 H   0  0  0  0  0  0  0  0  0  0  0  0
    2.4280   -2.1140   -0.3290 H   0  0  0  0  0  0  0  0  0  0  0  0
    5.0530   -0.1240   -1.2410 H   0  0  0  0  0  0  0  0  0  0  0  0
    6.7460    0.4050   -1.0830 H   0  0  0  0  0  0  0  0  0  0  0  0
    5.8120    1.8630    0.8910 H   0  0  0  0  0  0  0  0  0  0  0  0
    5.6350    2.4130   -0.7790 H   0  0  0  0  0  0  0  0  0  0  0  0
    6.7870   -1.3340    0.4050 H   0  0  0  0  0  0  0  0  0  0  0  0
    6.2240   -0.0530    1.5020 H   0  0  0  0  0  0  0  0  0  0  0  0
    3.6170    2.7760    0.4320 H   0  0  0  0  0  0  0  0  0  0  0  0
    3.3650    1.5310   -0.8100 H   0  0  0  0  0  0  0  0  0  0  0  0
    4.6250   -2.2560    0.1660 H   0  0  0  0  0  0  0  0  0  0  0  0
    4.7010   -1.8250    1.8840 H   0  0  0  0  0  0  0  0  0  0  0  0
    4.0320    0.8630    2.0990 H   0  0  0  0  0  0  0  0  0  0  0  0
    2.3640    0.9910    1.4910 H   0  0  0  0  0  0  0  0  0  0  0  0
   -1.5580    0.4200    0.3710 N   0  0  0  0  0  0  0  0  0  0  0  0
   -2.9390    0.3890    0.8640 C   0  0  2  0  0  0  0  0  0  0  0  0
   -3.7420   -0.8070    0.3190 C   0  0  0  0  0  0  0  0  0  0  0  0
   -2.5010   -1.7500   -0.6530 S   0  0  0  0  0  0  0  0  0  0  0  0
   -1.0430   -0.9600    0.1460 C   0  0  1  0  0  0  0  0  0  0  0  0
   -1.4860    0.9740   -0.4690 H   0  0  0  0  0  0  0  0  0  0  0  0
   -2.9220    0.3360    1.9520 H   0  0  0  0  0  0  0  0  0  0  0  0
   -0.7990   -1.4480    1.0890 H   0  0  0  0  0  0  0  0  0  0  0  0
   -4.2860   -1.6590    1.4690 C   0  0  0  0  0  0  0  0  0  0  0  0
   -4.8810   -0.3260   -0.5820 C   0  0  0  0  0  0  0  0  0  0  0  0
   -4.9390   -1.0500    2.0940 H   0  0  0  0  0  0  0  0  0  0  0  0
   -4.8500   -2.4980    1.0630 H   0  0  0  0  0  0  0  0  0  0  0  0
   -3.4560   -2.0340    2.0670 H   0  0  0  0  0  0  0  0  0  0  0  0
   -4.4680    0.2330   -1.4220 H   0  0  0  0  0  0  0  0  0  0  0  0
   -5.4360   -1.1860   -0.9560 H   0  0  0  0  0  0  0  0  0  0  0  0
   -5.5500    0.3180   -0.0100 H   0  0  0  0  0  0  0  0  0  0  0  0
   -3.6290    1.6650    0.4550 C   0  0  0  0  0  0  0  0  0  0  0  0
   -4.7520    2.0510    1.0810 O   0  0  0  0  0  0  0  0  0  0  0  0
   -3.1720    2.3400   -0.4370 O   0  0  0  0  0  0  0  0  0  0  0  0
   -5.1590    2.8760    0.7840 H   0  0  0  0  0  0  0  0  0  0  0  0
  6  7  1  0  0  0  0
  6  8  1  0  0  0  0
  7  9  1  0  0  0  0
  9 11  1  0  0  0  0
  8 10  1  0  0  0  0
 11 12  1  0  0  0  0
 10 12  1  0  0  0  0
  5 12  1  0  0  0  0
  2  5  2  0  0  0  0
  2  4  1  0  0  0  0
  1  3  2  0  0  0  0
  1  4  1  0  0  0  0
  1 13  1  0  0  0  0
  4 14  1  0  0  0  0
  5 15  1  0  0  0  0
  6 16  1  0  0  0  0
  6 17  1  0  0  0  0
  7 18  1  0  0  0  0
  7 19  1  0  0  0  0
  8 20  1  0  0  0  0
  8 21  1  0  0  0  0
  9 22  1  0  0  0  0
  9 23  1  0  0  0  0
 10 24  1  0  0  0  0
 10 25  1  0  0  0  0
 11 26  1  0  0  0  0
 11 27  1  0  0  0  0
  4 32  1  0  0  0  0
 28 32  1  0  0  0  0
 28 29  1  0  0  0  0
 29 30  1  0  0  0  0
 30 31  1  0  0  0  0
 31 32  1  0  0  0  0
 28 33  1  0  0  0  0
 29 34  1  0  0  0  0
 32 35  1  0  0  0  0
 30 36  1  0  0  0  0
 30 37  1  0  0  0  0
 36 38  1  0  0  0  0
 36 39  1  0  0  0  0
 36 40  1  0  0  0  0
 37 41  1  0  0  0  0
 37 42  1  0  0  0  0
 37 43  1  0  0  0  0
 29 44  1  0  0  0  0
 44 45  1  0  0  0  0
 44 46  2  0  0  0  0
 45 47  1  0  0  0  0
M  END
> <OPENEYE_ISO_SMILES>
CC1([C@@H](N[C@@H](S1)[C@@H](C=O)/N=C/N2CCCCCC2)C(=O)O)C

> <OPENEYE_INCHI>
InChI=1S/C15H25N3O3S/c1-15(2)12(14(20)21)17-13(22-15)11(9-19)16-10-18-7-5-3-4-6-8-18/h9-13,17H,3-8H2,1-2H3,(H,20,21)/b16-10+/t11-,12+,13+/m1/s1

> <OPENEYE_INCHIKEY>
GIESTXBEHWEDNC-HWZSSGKQSA-N

> <FORMULA>
C15H25N3O3S

$$$$
