DRW
  -OEChem-07282321083D

 53 54  0     1  0  0  0  0  0999 V2000
   -5.9650   -1.4390    2.4370 C   0  0  0  0  0  0  0  0  0  0  0  0
   -3.7340   -1.4410   -2.0350 C   0  0  0  0  0  0  0  0  0  0  0  0
    7.2310   -1.8460    0.1800 N   0  0  0  0  0  0  0  0  0  0  0  0
   -6.2380   -0.6490   -2.1340 O   0  0  0  0  0  0  0  0  0  0  0  0
   -2.5270    3.2740    0.3280 O   0  0  0  0  0  0  0  0  0  0  0  0
    7.2690    0.2830    1.4280 O   0  0  0  0  0  0  0  0  0  0  0  0
    7.8700    0.2270   -0.9970 O   0  0  0  0  0  0  0  0  0  0  0  0
   -0.8320    2.3720   -0.7830 O   0  0  0  0  0  0  0  0  0  0  0  0
   -6.0410    0.7980    1.5250 O   0  0  0  0  0  0  0  0  0  0  0  0
   -5.7250   -0.1510   -1.1610 C   0  0  0  0  0  0  0  0  0  0  0  0
    1.2790    0.3900   -1.2250 C   0  0  0  0  0  0  0  0  0  0  0  0
    4.4280   -0.2220    0.6330 C   0  0  0  0  0  0  0  0  0  0  0  0
    1.9550    0.0550    1.1070 C   0  0  0  0  0  0  0  0  0  0  0  0
   -3.5920    0.6050    0.4680 N   0  0  0  0  0  0  0  0  0  0  0  0
    2.7270    0.0990   -1.1430 N   0  0  0  0  0  0  0  0  0  0  0  0
    5.5070    0.1320   -0.2930 N   0  0  0  0  0  0  0  0  0  0  0  0
   -0.5060   -0.9650    0.3810 S   0  0  0  0  0  0  0  0  0  0  0  0
   -1.8920    2.2170   -0.2120 C   0  0  0  0  0  0  0  0  0  0  0  0
   -2.4870    0.8630   -0.1100 C   0  0  0  0  0  0  0  0  0  0  0  0
   -6.2890   -0.5750    1.2170 C   0  0  1  0  0  0  0  0  0  0  0  0
   -3.0220   -1.4150   -0.6810 C   0  0  2  0  0  0  0  0  0  0  0  0
    3.1450    0.5050    0.2230 C   0  0  2  0  0  0  0  0  0  0  0  0
    0.7290    0.3530    0.2130 C   0  0  2  0  0  0  0  0  0  0  0  0
   -5.4060   -1.0020    0.0420 C   0  0  2  0  0  0  0  0  0  0  0  0
   -3.9340   -0.8210    0.4180 C   0  0  2  0  0  0  0  0  0  0  0  0
   -1.8620   -0.3910   -0.6800 C   0  0  2  0  0  0  0  0  0  0  0  0
    7.0800   -0.1990    0.1050 S   0  0  0  0  0  0  0  0  0  0  0  0
   -6.5940   -1.1350    3.2740 H   0  0  0  0  0  0  0  0  0  0  0  0
   -6.1550   -2.4860    2.2020 H   0  0  0  0  0  0  0  0  0  0  0  0
   -4.9170   -1.3100    2.7050 H   0  0  0  0  0  0  0  0  0  0  0  0
   -3.9810   -0.4220   -2.3350 H   0  0  0  0  0  0  0  0  0  0  0  0
   -3.0800   -1.8910   -2.7810 H   0  0  0  0  0  0  0  0  0  0  0  0
   -4.6500   -2.0270   -1.9530 H   0  0  0  0  0  0  0  0  0  0  0  0
    7.0740   -2.3090    1.0180 H   0  0  0  0  0  0  0  0  0  0  0  0
    7.4780   -2.3470   -0.6130 H   0  0  0  0  0  0  0  0  0  0  0  0
   -2.1000    4.1370    0.2360 H   0  0  0  0  0  0  0  0  0  0  0  0
   -6.5670    1.1370    2.2620 H   0  0  0  0  0  0  0  0  0  0  0  0
   -5.4950    0.9040   -1.1520 H   0  0  0  0  0  0  0  0  0  0  0  0
    1.1230    1.3790   -1.6560 H   0  0  0  0  0  0  0  0  0  0  0  0
    0.7790   -0.3630   -1.8330 H   0  0  0  0  0  0  0  0  0  0  0  0
    4.2610   -1.2980    0.6020 H   0  0  0  0  0  0  0  0  0  0  0  0
    4.7050    0.0740    1.6450 H   0  0  0  0  0  0  0  0  0  0  0  0
    2.0210   -1.0100    1.3290 H   0  0  0  0  0  0  0  0  0  0  0  0
    1.9130    0.6380    2.0270 H   0  0  0  0  0  0  0  0  0  0  0  0
    2.9080   -0.8810   -1.3010 H   0  0  0  0  0  0  0  0  0  0  0  0
    5.3000    0.5590   -1.1380 H   0  0  0  0  0  0  0  0  0  0  0  0
   -7.3380   -0.7030    0.9480 H   0  0  0  0  0  0  0  0  0  0  0  0
   -2.6710   -2.4090   -0.4060 H   0  0  0  0  0  0  0  0  0  0  0  0
    3.2810    1.5850    0.2810 H   0  0  0  0  0  0  0  0  0  0  0  0
    0.2940    1.3160    0.4770 H   0  0  0  0  0  0  0  0  0  0  0  0
   -5.5960   -2.0490   -0.1930 H   0  0  0  0  0  0  0  0  0  0  0  0
   -3.7290   -1.2960    1.3780 H   0  0  0  0  0  0  0  0  0  0  0  0
   -1.5030   -0.2130   -1.6940 H   0  0  0  0  0  0  0  0  0  0  0  0
  1 20  1  0  0  0  0
  1 28  1  0  0  0  0
  1 29  1  0  0  0  0
  1 30  1  0  0  0  0
  2 21  1  0  0  0  0
  2 31  1  0  0  0  0
  2 32  1  0  0  0  0
  2 33  1  0  0  0  0
  3 27  1  0  0  0  0
  3 34  1  0  0  0  0
  3 35  1  0  0  0  0
  4 10  2  0  0  0  0
  5 36  1  0  0  0  0
  7 27  2  0  0  0  0
  8 18  2  0  0  0  0
  9 37  1  0  0  0  0
 10 38  1  0  0  0  0
 11 23  1  0  0  0  0
 11 39  1  0  0  0  0
 11 40  1  0  0  0  0
 12 22  1  0  0  0  0
 12 41  1  0  0  0  0
 12 42  1  0  0  0  0
 13 23  1  0  0  0  0
 13 43  1  0  0  0  0
 13 44  1  0  0  0  0
 11 15  1  0  0  0  0
 15 45  1  0  0  0  0
 12 16  1  0  0  0  0
 16 46  1  0  0  0  0
  5 18  1  0  0  0  0
 14 19  2  0  0  0  0
 18 19  1  0  0  0  0
  9 20  1  0  0  0  0
 20 47  1  0  0  0  0
 21 25  1  0  0  0  0
 21 48  1  0  0  0  0
 13 22  1  0  0  0  0
 15 22  1  0  0  0  0
 22 49  1  0  0  0  0
 17 23  1  0  0  0  0
 23 50  1  0  0  0  0
 10 24  1  0  0  0  0
 20 24  1  0  0  0  0
 24 25  1  0  0  0  0
 24 51  1  0  0  0  0
 14 25  1  0  0  0  0
 25 52  1  0  0  0  0
 17 26  1  0  0  0  0
 19 26  1  0  0  0  0
 21 26  1  0  0  0  0
 26 53  1  0  0  0  0
  6 27  2  0  0  0  0
 16 27  1  0  0  0  0
M  END
> <OPENEYE_ISO_SMILES>
C[C@H]1[C@@H](C(=N[C@H]1[C@H](C=O)[C@@H](C)O)C(=O)O)S[C@H]2C[C@H](NC2)CNS(=O)(=O)N

> <OPENEYE_INCHI>
InChI=1S/C15H26N4O6S2/c1-7-12(11(6-20)8(2)21)19-13(15(22)23)14(7)26-10-3-9(17-5-10)4-18-27(16,24)25/h6-12,14,17-18,21H,3-5H2,1-2H3,(H,22,23)(H2,16,24,25)/t7-,8-,9+,10+,11-,12-,14+/m1/s1

> <OPENEYE_INCHIKEY>
RBKUPZPTQNSPAV-CFINEGTKSA-N

> <FORMULA>
C15H26N4O6S2

$$$$
