REMARK  12 active torsions:
REMARK  status: ('A' for Active; 'I' for Inactive)
REMARK    1  A    between atoms: N_3  and  S_27 
REMARK    2  A    between atoms: OXT_5  and  C_18 
REMARK    3  A    between atoms: O_9  and  C_20 
REMARK    4  A    between atoms: C_10  and  C_24 
REMARK    5  A    between atoms: C_12  and  C_22 
REMARK    6  A    between atoms: C_12  and  N_16 
REMARK    7  A    between atoms: N_16  and  S_27 
REMARK    8  A    between atoms: S_17  and  C_23 
REMARK    9  A    between atoms: S_17  and  C_26 
REMARK   10  A    between atoms: C_18  and  CA_19 
REMARK   11  A    between atoms: C_20  and  C_24 
REMARK   12  A    between atoms: C_24  and  C_25 
ROOT
HETATM    1  C   UNL     1      -3.734  -1.441  -2.035  1.00  0.00     0.014 C 
HETATM    2  N   UNL     1      -3.592   0.605   0.468  1.00  0.00    -0.280 NA
HETATM    3  CA  UNL     1      -2.487   0.863  -0.110  1.00  0.00     0.116 C 
HETATM    4  C   UNL     1      -3.022  -1.415  -0.681  1.00  0.00     0.027 C 
HETATM    5  C   UNL     1      -3.934  -0.821   0.418  1.00  0.00     0.127 C 
HETATM    6  C   UNL     1      -1.862  -0.391  -0.680  1.00  0.00     0.112 C 
ENDROOT
BRANCH   6   7
HETATM    7  S   UNL     1      -0.506  -0.965   0.381  1.00  0.00    -0.151 SA
BRANCH   7   8
HETATM    8  C   UNL     1       0.729   0.353   0.213  1.00  0.00     0.078 C 
HETATM    9  C   UNL     1       1.279   0.390  -1.225  1.00  0.00     0.285 C 
HETATM   10  N   UNL     1       2.727   0.099  -1.143  1.00  0.00     0.090 N 
HETATM   11  H   UNL     1       2.908  -0.881  -1.301  1.00  0.00     0.316 HD
HETATM   12  C   UNL     1       3.145   0.505   0.223  1.00  0.00     0.239 C 
HETATM   13  C   UNL     1       1.955   0.055   1.107  1.00  0.00     0.054 C 
BRANCH  12  14
HETATM   14  C   UNL     1       4.428  -0.222   0.633  1.00  0.00     0.169 C 
BRANCH  14  15
HETATM   15  N   UNL     1       5.507   0.132  -0.293  1.00  0.00    -0.301 N 
HETATM   16  H   UNL     1       5.300   0.559  -1.138  1.00  0.00     0.173 HD
BRANCH  15  17
HETATM   17  S   UNL     1       7.080  -0.199   0.105  1.00  0.00     0.312 S 
HETATM   18  O   UNL     1       7.269   0.283   1.428  1.00  0.00    -0.183 OA
HETATM   19  O   UNL     1       7.870   0.227  -0.997  1.00  0.00    -0.183 OA
BRANCH  17  20
HETATM   20  N   UNL     1       7.231  -1.846   0.180  1.00  0.00    -0.312 N 
HETATM   21  H   UNL     1       7.074  -2.309   1.018  1.00  0.00     0.170 HD
HETATM   22  H   UNL     1       7.478  -2.347  -0.613  1.00  0.00     0.170 HD
ENDBRANCH  17  20
ENDBRANCH  15  17
ENDBRANCH  14  15
ENDBRANCH  12  14
ENDBRANCH   7   8
ENDBRANCH   6   7
BRANCH   3  23
HETATM   23  C   UNL     1      -1.892   2.217  -0.212  1.00  0.00     0.192 C 
HETATM   24  O   UNL     1      -0.832   2.372  -0.783  1.00  0.00    -0.645 OA
BRANCH  23  25
HETATM   25  OXT UNL     1      -2.527   3.274   0.328  1.00  0.00    -0.772 OA
HETATM   26  HXT UNL     1      -2.100   4.137   0.236  1.00  0.00     0.167 HD
ENDBRANCH  23  25
ENDBRANCH   3  23
BRANCH   5  27
HETATM   27  C   UNL     1      -5.406  -1.002   0.042  1.00  0.00     0.100 C 
BRANCH  27  28
HETATM   28  C   UNL     1      -5.725  -0.151  -1.161  1.00  0.00     0.240 C 
HETATM   29  O   UNL     1      -6.238  -0.649  -2.134  1.00  0.00    -0.306 OA
ENDBRANCH  27  28
BRANCH  27  30
HETATM   30  C   UNL     1      -6.289  -0.575   1.217  1.00  0.00     0.126 C 
HETATM   31  C   UNL     1      -5.965  -1.439   2.437  1.00  0.00     0.040 C 
BRANCH  30  32
HETATM   32  O   UNL     1      -6.041   0.798   1.525  1.00  0.00    -0.395 OA
HETATM   33  H   UNL     1      -6.567   1.137   2.262  1.00  0.00     0.210 HD
ENDBRANCH  30  32
ENDBRANCH  27  30
ENDBRANCH   5  27
TORSDOF 12
