DVR
  -OEChem-07282321083D

 41 42  0     0  0  0  0  0  0999 V2000
   -0.3050   -2.2340    2.4880 S   0  0  0  0  0  0  0  0  0  0  0  0
   -1.2250   -2.2090    0.9810 C   0  0  0  0  0  0  0  0  0  0  0  0
   -2.3300   -1.1800    1.1060 C   0  0  0  0  0  0  0  0  0  0  0  0
   -3.5820   -1.4920    1.5360 C   0  0  0  0  0  0  0  0  0  0  0  0
   -4.0470   -2.7040    1.9700 N   0  0  0  0  0  0  0  0  0  0  0  0
   -5.3320   -3.0290    2.4120 C   0  0  0  0  0  0  0  0  0  0  0  0
   -5.8390   -2.9810    3.6630 C   0  0  0  0  0  0  0  0  0  0  0  0
   -5.1430   -2.5720    4.8510 C   0  0  0  0  0  0  0  0  0  0  0  0
   -7.1840   -3.4130    3.5630 C   0  0  0  0  0  0  0  0  0  0  0  0
   -2.0160    0.1950    0.6710 C   0  0  0  0  0  0  0  0  0  0  0  0
   -0.8380    0.6580    0.2240 C   0  0  0  0  0  0  0  0  0  0  0  0
   -0.6990    2.0870   -0.1710 C   0  0  0  0  0  0  0  0  0  0  0  0
    0.5720    2.3920   -0.6010 N   0  0  0  0  0  0  0  0  0  0  0  0
   -1.6190    2.8970   -0.1160 O   0  0  0  0  0  0  0  0  0  0  0  0
   -5.6600   -2.5470    5.9820 O   0  0  0  0  0  0  0  0  0  0  0  0
   -4.6200   -0.4240    1.5580 C   0  0  0  0  0  0  0  0  0  0  0  0
   -4.6130    0.1920    2.7640 O   0  0  0  0  0  0  0  0  0  0  0  0
   -5.3750   -0.1470    0.6410 O   0  0  0  0  0  0  0  0  0  0  0  0
    0.3860   -0.9660    2.6230 O   0  0  0  0  0  0  0  0  0  0  0  0
   -1.1640   -2.7410    3.5410 O   0  0  0  0  0  0  0  0  0  0  0  0
   -7.4260   -3.7040    2.2380 C   0  0  0  0  0  0  0  0  0  0  0  0
   -8.5580   -4.1720    1.5100 C   0  0  0  0  0  0  0  0  0  0  0  0
   -6.2580   -3.4600    1.5210 N   0  0  0  0  0  0  0  0  0  0  0  0
   -8.4620   -4.3590    0.1790 C   0  0  0  0  0  0  0  0  0  0  0  0
   -6.1560   -3.6530    0.1430 C   0  0  0  0  0  0  0  0  0  0  0  0
   -7.2250   -4.0950   -0.5380 C   0  0  0  0  0  0  0  0  0  0  0  0
    0.6600   -3.1590    2.3280 H   0  0  0  0  0  0  0  0  0  0  0  0
   -0.5370   -2.0030    0.1570 H   0  0  0  0  0  0  0  0  0  0  0  0
   -1.5890   -3.2260    0.8140 H   0  0  0  0  0  0  0  0  0  0  0  0
   -3.3610   -3.4430    1.9620 H   0  0  0  0  0  0  0  0  0  0  0  0
   -4.0720   -2.2570    4.7550 H   0  0  0  0  0  0  0  0  0  0  0  0
   -7.9000   -3.5020    4.3690 H   0  0  0  0  0  0  0  0  0  0  0  0
   -2.8350    0.9060    0.7260 H   0  0  0  0  0  0  0  0  0  0  0  0
    0.0430    0.0330    0.1340 H   0  0  0  0  0  0  0  0  0  0  0  0
    1.2830    1.6670   -0.6190 H   0  0  0  0  0  0  0  0  0  0  0  0
    0.8060    3.3330   -0.9010 H   0  0  0  0  0  0  0  0  0  0  0  0
   -5.2940    0.8960    2.8210 H   0  0  0  0  0  0  0  0  0  0  0  0
   -9.4870   -4.3720    2.0320 H   0  0  0  0  0  0  0  0  0  0  0  0
   -9.3110   -4.7140   -0.3940 H   0  0  0  0  0  0  0  0  0  0  0  0
   -5.2110   -3.4410   -0.3420 H   0  0  0  0  0  0  0  0  0  0  0  0
   -7.1940   -4.2590   -1.6080 H   0  0  0  0  0  0  0  0  0  0  0  0
  1  2  1  0  0  0  0
  1 19  2  0  0  0  0
  1 20  2  0  0  0  0
  1 27  1  0  0  0  0
  2  3  1  0  0  0  0
  2 28  1  0  0  0  0
  2 29  1  0  0  0  0
  3  4  2  0  0  0  0
  3 10  1  0  0  0  0
  4  5  1  0  0  0  0
  4 16  1  0  0  0  0
  5  6  1  0  0  0  0
  5 30  1  0  0  0  0
  6  7  2  0  0  0  0
  6 23  1  0  0  0  0
  7  8  1  0  0  0  0
  7  9  1  0  0  0  0
  8 15  2  0  0  0  0
  8 31  1  0  0  0  0
  9 21  2  0  0  0  0
  9 32  1  0  0  0  0
 10 11  2  0  0  0  0
 10 33  1  0  0  0  0
 11 12  1  0  0  0  0
 11 34  1  0  0  0  0
 12 13  1  0  0  0  0
 12 14  2  0  0  0  0
 13 35  1  0  0  0  0
 13 36  1  0  0  0  0
 16 17  1  0  0  0  0
 16 18  2  0  0  0  0
 17 37  1  0  0  0  0
 21 22  1  0  0  0  0
 21 23  1  0  0  0  0
 22 24  2  0  0  0  0
 22 38  1  0  0  0  0
 23 25  1  0  0  0  0
 24 26  1  0  0  0  0
 24 39  1  0  0  0  0
 25 26  2  0  0  0  0
 25 40  1  0  0  0  0
 26 41  1  0  0  0  0
M  END
> <OPENEYE_ISO_SMILES>
c1ccn2c(c1)cc(c2N/C(=C(\CS(=O)=O)/C=C/C(=O)N)/C(=O)O)C=O

> <OPENEYE_INCHI>
InChI=1S/C16H15N3O6S/c17-13(21)5-4-10(9-26(24)25)14(16(22)23)18-15-11(8-20)7-12-3-1-2-6-19(12)15/h1-8,18,26H,9H2,(H2,17,21)(H,22,23)/b5-4+,14-10-

> <OPENEYE_INCHIKEY>
ARSFRLAHCNFFCE-IBXIYJDRSA-N

> <FORMULA>
C16H15N3O6S

$$$$
