REMARK  9 active torsions:
REMARK  status: ('A' for Active; 'I' for Inactive)
REMARK    1  A    between atoms: S_1  and  C_2 
REMARK    2  A    between atoms: C_2  and  C_3 
REMARK    3  A    between atoms: C_3  and  C_10 
REMARK    4  A    between atoms: CA_4  and  N_5 
REMARK    5  A    between atoms: CA_4  and  C_16 
REMARK    6  A    between atoms: N_5  and  C_6 
REMARK    7  A    between atoms: C_7  and  C_8 
REMARK    8  A    between atoms: C_11  and  C_12 
REMARK       I    between atoms: C_12  and  N_13 
REMARK    9  A    between atoms: C_16  and  O_17 
ROOT
HETATM    1  C   UNL     1      -2.330  -1.180   1.106  1.00  0.00    -0.011 C 
HETATM    2  CA  UNL     1      -3.582  -1.492   1.536  1.00  0.00     0.115 C 
ENDROOT
BRANCH   2   3
HETATM    3  N   UNL     1      -4.047  -2.704   1.970  1.00  0.00    -0.335 N 
HETATM    4  H   UNL     1      -3.361  -3.443   1.962  1.00  0.00     0.168 HD
BRANCH   3   5
HETATM    5  C   UNL     1      -5.332  -3.029   2.412  1.00  0.00     0.126 A 
HETATM    6  C   UNL     1      -5.839  -2.981   3.663  1.00  0.00     0.048 A 
HETATM    7  C   UNL     1      -7.184  -3.413   3.563  1.00  0.00     0.048 A 
HETATM    8  C   UNL     1      -7.426  -3.704   2.238  1.00  0.00     0.041 A 
HETATM    9  C   UNL     1      -8.558  -4.172   1.510  1.00  0.00     0.030 A 
HETATM   10  N   UNL     1      -6.258  -3.460   1.521  1.00  0.00    -0.308 N 
HETATM   11  C   UNL     1      -8.462  -4.359   0.179  1.00  0.00     0.004 A 
HETATM   12  C   UNL     1      -7.225  -4.095  -0.538  1.00  0.00     0.018 A 
HETATM   13  C   UNL     1      -6.156  -3.653   0.143  1.00  0.00     0.099 A 
BRANCH   6  14
HETATM   14  C   UNL     1      -5.143  -2.572   4.851  1.00  0.00     0.273 C 
HETATM   15  O   UNL     1      -5.660  -2.547   5.982  1.00  0.00    -0.301 OA
ENDBRANCH   6  14
ENDBRANCH   3   5
ENDBRANCH   2   3
BRANCH   2  16
HETATM   16  C   UNL     1      -4.620  -0.424   1.558  1.00  0.00     0.194 C 
HETATM   17  OXT UNL     1      -5.375  -0.147   0.641  1.00  0.00    -0.645 OA
BRANCH  16  18
HETATM   18  O   UNL     1      -4.613   0.192   2.764  1.00  0.00    -0.772 OA
HETATM   19  H   UNL     1      -5.294   0.896   2.821  1.00  0.00     0.167 HD
ENDBRANCH  16  18
ENDBRANCH   2  16
BRANCH   1  20
HETATM   20  C   UNL     1      -1.225  -2.209   0.981  1.00  0.00     0.178 C 
BRANCH  20  21
HETATM   21  S   UNL     1      -0.305  -2.234   2.488  1.00  0.00     0.142 S 
HETATM   22  O   UNL     1       0.386  -0.966   2.623  1.00  0.00    -0.230 OA
HETATM   23  O   UNL     1      -1.164  -2.741   3.541  1.00  0.00    -0.230 OA
HETATM   24  H   UNL     1       0.660  -3.159   2.328  1.00  0.00     0.171 HD
ENDBRANCH  20  21
ENDBRANCH   1  20
BRANCH   1  25
HETATM   25  C   UNL     1      -2.016   0.195   0.671  1.00  0.00     0.016 C 
HETATM   26  C   UNL     1      -0.838   0.658   0.224  1.00  0.00     0.074 C 
BRANCH  26  27
HETATM   27  C   UNL     1      -0.699   2.087  -0.171  1.00  0.00     0.238 C 
HETATM   28  N   UNL     1       0.572   2.392  -0.601  1.00  0.00    -0.367 N 
HETATM   29  H   UNL     1       1.283   1.667  -0.619  1.00  0.00     0.159 HD
HETATM   30  H   UNL     1       0.806   3.333  -0.901  1.00  0.00     0.159 HD
HETATM   31  O   UNL     1      -1.619   2.897  -0.116  1.00  0.00    -0.269 OA
ENDBRANCH  26  27
ENDBRANCH   1  25
TORSDOF 9
