REMARK  9 active torsions:
REMARK  status: ('A' for Active; 'I' for Inactive)
REMARK       I    between atoms: N_2  and  C_4 
REMARK    1  A    between atoms: C_4  and  C_6 
REMARK    2  A    between atoms: C_10  and  S_11 
REMARK    3  A    between atoms: S_11  and  C_12 
REMARK    4  A    between atoms: CA_15  and  C_16 
REMARK    5  A    between atoms: C_16  and  O_18 
REMARK    6  A    between atoms: C_20  and  C_21 
REMARK    7  A    between atoms: C_21  and  C_22 
REMARK    8  A    between atoms: C_21  and  C_25 
REMARK    9  A    between atoms: C_22  and  O_24 
ROOT
HETATM    1  C   UNL     1      -1.015   0.736   0.516  1.00  0.00     0.112 C 
HETATM    2  C   UNL     1      -2.209   1.582   0.008  1.00  0.00     0.027 C 
HETATM    3  C   UNL     1      -3.033   2.129   1.174  1.00  0.00     0.014 C 
HETATM    4  CA  UNL     1      -1.542  -0.682   0.503  1.00  0.00     0.116 C 
HETATM    5  N   UNL     1      -2.602  -0.773  -0.196  1.00  0.00    -0.280 NA
HETATM    6  C   UNL     1      -3.002   0.516  -0.785  1.00  0.00     0.127 C 
ENDROOT
BRANCH   1   7
HETATM    7  S   UNL     1       0.403   0.899  -0.604  1.00  0.00    -0.151 SA
BRANCH   7   8
HETATM    8  C   UNL     1       1.688  -0.081   0.220  1.00  0.00     0.078 C 
HETATM    9  C   UNL     1       2.965  -0.171  -0.655  1.00  0.00     0.062 C 
HETATM   10  C   UNL     1       4.084  -0.391   0.384  1.00  0.00     0.312 C 
HETATM   11  N   UNL     1       3.584   0.110   1.677  1.00  0.00     0.098 N 
HETATM   12  H   UNL     1       3.586  -0.621   2.373  1.00  0.00     0.317 HD
HETATM   13  C   UNL     1       2.221   0.648   1.478  1.00  0.00     0.285 C 
BRANCH  10  14
HETATM   14  C   UNL     1       5.317   0.375  -0.020  1.00  0.00     0.252 C 
HETATM   15  N   UNL     1       6.153  -0.132  -0.948  1.00  0.00    -0.359 N 
HETATM   16  C   UNL     1       7.351   0.613  -1.341  1.00  0.00     0.152 C 
HETATM   17  C   UNL     1       5.862  -1.430  -1.563  1.00  0.00     0.152 C 
HETATM   18  O   UNL     1       5.558   1.450   0.489  1.00  0.00    -0.271 OA
ENDBRANCH  10  14
ENDBRANCH   7   8
ENDBRANCH   1   7
BRANCH   4  19
HETATM   19  C   UNL     1      -0.907  -1.817   1.214  1.00  0.00     0.192 C 
HETATM   20  OXT UNL     1       0.105  -1.639   1.860  1.00  0.00    -0.645 OA
BRANCH  19  21
HETATM   21  O   UNL     1      -1.452  -3.046   1.143  1.00  0.00    -0.772 OA
HETATM   22  H   UNL     1      -1.002  -3.755   1.622  1.00  0.00     0.167 HD
ENDBRANCH  19  21
ENDBRANCH   4  19
BRANCH   6  23
HETATM   23  C   UNL     1      -4.507   0.735  -0.613  1.00  0.00     0.100 C 
BRANCH  23  24
HETATM   24  C   UNL     1      -5.270  -0.269  -1.479  1.00  0.00     0.126 C 
HETATM   25  C   UNL     1      -4.890  -0.069  -2.947  1.00  0.00     0.040 C 
BRANCH  24  26
HETATM   26  O   UNL     1      -4.933  -1.598  -1.076  1.00  0.00    -0.395 OA
HETATM   27  H   UNL     1      -5.381  -2.289  -1.584  1.00  0.00     0.210 HD
ENDBRANCH  24  26
ENDBRANCH  23  24
BRANCH  23  28
HETATM   28  C   UNL     1      -4.881   0.538   0.833  1.00  0.00     0.240 C 
HETATM   29  O   UNL     1      -5.503   1.393   1.418  1.00  0.00    -0.306 OA
ENDBRANCH  23  28
ENDBRANCH   6  23
TORSDOF 9
