DWZ
  -OEChem-07282321083D

 53 54  0     1  0  0  0  0  0999 V2000
    7.3510    0.6130   -1.3410 C   0  0  0  0  0  0  0  0  0  0  0  0
    6.1530   -0.1320   -0.9480 N   0  0  0  0  0  0  0  0  0  0  0  0
    5.8620   -1.4300   -1.5630 C   0  0  0  0  0  0  0  0  0  0  0  0
    5.3170    0.3750   -0.0200 C   0  0  0  0  0  0  0  0  0  0  0  0
    5.5580    1.4500    0.4890 O   0  0  0  0  0  0  0  0  0  0  0  0
    4.0840   -0.3910    0.3840 C   0  0  2  0  0  0  0  0  0  0  0  0
    2.9650   -0.1710   -0.6550 C   0  0  0  0  0  0  0  0  0  0  0  0
    3.5840    0.1100    1.6770 N   0  0  0  0  0  0  0  0  0  0  0  0
    2.2210    0.6480    1.4780 C   0  0  0  0  0  0  0  0  0  0  0  0
    1.6880   -0.0810    0.2200 C   0  0  1  0  0  0  0  0  0  0  0  0
    0.4030    0.8990   -0.6040 S   0  0  0  0  0  0  0  0  0  0  0  0
   -1.0150    0.7360    0.5160 C   0  0  1  0  0  0  0  0  0  0  0  0
   -2.2090    1.5820    0.0080 C   0  0  2  0  0  0  0  0  0  0  0  0
   -3.0330    2.1290    1.1740 C   0  0  0  0  0  0  0  0  0  0  0  0
   -1.5420   -0.6820    0.5030 C   0  0  0  0  0  0  0  0  0  0  0  0
   -0.9070   -1.8170    1.2140 C   0  0  0  0  0  0  0  0  0  0  0  0
    0.1050   -1.6390    1.8600 O   0  0  0  0  0  0  0  0  0  0  0  0
   -1.4520   -3.0460    1.1430 O   0  0  0  0  0  0  0  0  0  0  0  0
   -2.6020   -0.7730   -0.1960 N   0  0  0  0  0  0  0  0  0  0  0  0
   -3.0020    0.5160   -0.7850 C   0  0  1  0  0  0  0  0  0  0  0  0
   -4.5070    0.7350   -0.6130 C   0  0  1  0  0  0  0  0  0  0  0  0
   -5.2700   -0.2690   -1.4790 C   0  0  1  0  0  0  0  0  0  0  0  0
   -4.8900   -0.0690   -2.9470 C   0  0  0  0  0  0  0  0  0  0  0  0
   -4.9330   -1.5980   -1.0760 O   0  0  0  0  0  0  0  0  0  0  0  0
   -4.8810    0.5380    0.8330 C   0  0  0  0  0  0  0  0  0  0  0  0
   -5.5030    1.3930    1.4180 O   0  0  0  0  0  0  0  0  0  0  0  0
    7.1130    1.2680   -2.1790 H   0  0  0  0  0  0  0  0  0  0  0  0
    7.6990    1.2110   -0.4990 H   0  0  0  0  0  0  0  0  0  0  0  0
    8.1320   -0.0870   -1.6380 H   0  0  0  0  0  0  0  0  0  0  0  0
    6.3260   -2.2230   -0.9760 H   0  0  0  0  0  0  0  0  0  0  0  0
    4.7830   -1.5840   -1.5940 H   0  0  0  0  0  0  0  0  0  0  0  0
    6.2610   -1.4490   -2.5780 H   0  0  0  0  0  0  0  0  0  0  0  0
    4.3170   -1.4530    0.4630 H   0  0  0  0  0  0  0  0  0  0  0  0
    3.1240    0.7580   -1.2020 H   0  0  0  0  0  0  0  0  0  0  0  0
    2.9040   -1.0170   -1.3400 H   0  0  0  0  0  0  0  0  0  0  0  0
    3.5860   -0.6210    2.3730 H   0  0  0  0  0  0  0  0  0  0  0  0
    1.5950    0.4240    2.3420 H   0  0  0  0  0  0  0  0  0  0  0  0
    2.2600    1.7240    1.3070 H   0  0  0  0  0  0  0  0  0  0  0  0
    1.3170   -1.0750    0.4730 H   0  0  0  0  0  0  0  0  0  0  0  0
   -0.7390    1.0330    1.5280 H   0  0  0  0  0  0  0  0  0  0  0  0
   -1.8710    2.3870   -0.6440 H   0  0  0  0  0  0  0  0  0  0  0  0
   -2.4410    2.8580    1.7280 H   0  0  0  0  0  0  0  0  0  0  0  0
   -3.9330    2.6090    0.7890 H   0  0  0  0  0  0  0  0  0  0  0  0
   -3.3140    1.3110    1.8370 H   0  0  0  0  0  0  0  0  0  0  0  0
   -1.0020   -3.7550    1.6220 H   0  0  0  0  0  0  0  0  0  0  0  0
   -2.7320    0.5510   -1.8400 H   0  0  0  0  0  0  0  0  0  0  0  0
   -4.7640    1.7490   -0.9200 H   0  0  0  0  0  0  0  0  0  0  0  0
   -6.3420   -0.1130   -1.3570 H   0  0  0  0  0  0  0  0  0  0  0  0
   -5.1470    0.9450   -3.2540 H   0  0  0  0  0  0  0  0  0  0  0  0
   -3.8180   -0.2250   -3.0700 H   0  0  0  0  0  0  0  0  0  0  0  0
   -5.4340   -0.7850   -3.5640 H   0  0  0  0  0  0  0  0  0  0  0  0
   -5.3810   -2.2890   -1.5840 H   0  0  0  0  0  0  0  0  0  0  0  0
   -4.5940   -0.3670    1.3470 H   0  0  0  0  0  0  0  0  0  0  0  0
  1 27  1  0  0  0  0
  1 28  1  0  0  0  0
  1 29  1  0  0  0  0
  1  2  1  0  0  0  0
  2  3  1  0  0  0  0
  3 30  1  0  0  0  0
  3 31  1  0  0  0  0
  3 32  1  0  0  0  0
  2  4  1  0  0  0  0
  4  6  1  0  0  0  0
  4  5  2  0  0  0  0
  6  8  1  0  0  0  0
  6 33  1  0  0  0  0
  6  7  1  0  0  0  0
  7 10  1  0  0  0  0
  7 34  1  0  0  0  0
  7 35  1  0  0  0  0
  8 36  1  0  0  0  0
  8  9  1  0  0  0  0
  9 37  1  0  0  0  0
  9 38  1  0  0  0  0
  9 10  1  0  0  0  0
 10 39  1  0  0  0  0
 10 11  1  0  0  0  0
 11 12  1  0  0  0  0
 12 40  1  0  0  0  0
 12 13  1  0  0  0  0
 13 14  1  0  0  0  0
 13 41  1  0  0  0  0
 14 42  1  0  0  0  0
 14 43  1  0  0  0  0
 14 44  1  0  0  0  0
 12 15  1  0  0  0  0
 15 16  1  0  0  0  0
 16 18  1  0  0  0  0
 16 17  2  0  0  0  0
 18 45  1  0  0  0  0
 15 19  2  0  0  0  0
 19 20  1  0  0  0  0
 13 20  1  0  0  0  0
 20 21  1  0  0  0  0
 20 46  1  0  0  0  0
 21 47  1  0  0  0  0
 21 22  1  0  0  0  0
 22 23  1  0  0  0  0
 22 48  1  0  0  0  0
 23 49  1  0  0  0  0
 23 50  1  0  0  0  0
 23 51  1  0  0  0  0
 22 24  1  0  0  0  0
 24 52  1  0  0  0  0
 21 25  1  0  0  0  0
 25 26  2  0  0  0  0
 25 53  1  0  0  0  0
M  END
> <OPENEYE_ISO_SMILES>
C[C@H]1[C@@H](C(=N[C@H]1[C@H](C=O)[C@@H](C)O)C(=O)O)S[C@H]2C[C@H](NC2)C(=O)N(C)C

> <OPENEYE_INCHI>
InChI=1S/C17H27N3O5S/c1-8-13(11(7-21)9(2)22)19-14(17(24)25)15(8)26-10-5-12(18-6-10)16(23)20(3)4/h7-13,15,18,22H,5-6H2,1-4H3,(H,24,25)/t8-,9-,10+,11-,12+,13-,15+/m1/s1

> <OPENEYE_INCHIKEY>
UUIYVKJXUXGPKB-VGWSNGFZSA-N

> <FORMULA>
C17H27N3O5S

$$$$
