DXF
  -OEChem-07282321083D

 47 48  0     1  0  0  0  0  0999 V2000
    0.9860    1.9420    1.4120 C   0  0  0  0  0  0  0  0  0  0  0  0
    2.0860    0.3480   -0.0500 N   0  0  0  0  0  0  0  0  0  0  0  0
    1.7960    1.5940    2.2370 O   0  0  0  0  0  0  0  0  0  0  0  0
    1.0000    1.3270    0.0360 C   0  0  1  0  0  0  0  0  0  0  0  0
   -0.3370    0.6300   -0.2250 C   0  0  2  0  0  0  0  0  0  0  0  0
    7.3090    1.8530   -1.0490 C   0  0  0  0  0  0  0  0  0  0  0  0
   -6.8100   -2.5820   -1.3380 N   0  0  0  0  0  0  0  0  0  0  0  0
   -7.1730   -0.9030    0.0700 O   0  0  0  0  0  0  0  0  0  0  0  0
   -4.3650    2.3040   -1.4340 O   0  0  0  0  0  0  0  0  0  0  0  0
    3.5420    1.9120   -0.6540 O   0  0  0  0  0  0  0  0  0  0  0  0
   -4.1430    2.9230    0.6870 O   0  0  0  0  0  0  0  0  0  0  0  0
    4.4230   -3.8380    0.1990 C   0  0  0  0  0  0  0  0  0  0  0  0
    3.1150   -3.5230    0.2950 C   0  0  0  0  0  0  0  0  0  0  0  0
    5.1180   -2.6410   -0.0530 C   0  0  0  0  0  0  0  0  0  0  0  0
   -4.6590   -0.2380    0.4280 C   0  0  0  0  0  0  0  0  0  0  0  0
   -2.2920   -1.2230    0.5890 C   0  0  0  0  0  0  0  0  0  0  0  0
    5.6780    0.1910   -0.5300 N   0  0  0  0  0  0  0  0  0  0  0  0
   -1.4370    1.5990   -0.1150 N   0  0  0  0  0  0  0  0  0  0  0  0
    5.9260    1.5440   -0.8670 O   0  0  0  0  0  0  0  0  0  0  0  0
   -5.0560   -1.3320   -0.4410 O   0  0  0  0  0  0  0  0  0  0  0  0
    2.9750   -2.2010    0.1150 O   0  0  0  0  0  0  0  0  0  0  0  0
   -0.6230   -0.6560    1.0340 S   0  0  0  0  0  0  0  0  0  0  0  0
   -6.3750   -1.5810   -0.5470 C   0  0  0  0  0  0  0  0  0  0  0  0
   -3.7960    2.1890   -0.2170 C   0  0  0  0  0  0  0  0  0  0  0  0
    3.3350    0.7520   -0.3580 C   0  0  0  0  0  0  0  0  0  0  0  0
   -3.1700   -0.0310    0.3270 C   0  0  0  0  0  0  0  0  0  0  0  0
    4.4540   -0.2190   -0.3370 C   0  0  0  0  0  0  0  0  0  0  0  0
   -2.7520    1.1740    0.0160 C   0  0  0  0  0  0  0  0  0  0  0  0
    4.1860   -1.6480   -0.0980 C   0  0  0  0  0  0  0  0  0  0  0  0
    0.2480    2.6900    1.6610 H   0  0  0  0  0  0  0  0  0  0  0  0
    1.9070   -0.5910    0.1150 H   0  0  0  0  0  0  0  0  0  0  0  0
    1.1540    2.1080   -0.7090 H   0  0  0  0  0  0  0  0  0  0  0  0
   -0.3340    0.1830   -1.2190 H   0  0  0  0  0  0  0  0  0  0  0  0
    7.8520    1.6470   -0.1260 H   0  0  0  0  0  0  0  0  0  0  0  0
    7.7150    1.2410   -1.8540 H   0  0  0  0  0  0  0  0  0  0  0  0
    7.4150    2.9070   -1.3050 H   0  0  0  0  0  0  0  0  0  0  0  0
   -7.7610   -2.7610   -1.4140 H   0  0  0  0  0  0  0  0  0  0  0  0
   -6.1740   -3.1230   -1.8310 H   0  0  0  0  0  0  0  0  0  0  0  0
   -5.0440    2.9840   -1.5380 H   0  0  0  0  0  0  0  0  0  0  0  0
    4.8560   -4.8220    0.3010 H   0  0  0  0  0  0  0  0  0  0  0  0
    2.3120   -4.2210    0.4840 H   0  0  0  0  0  0  0  0  0  0  0  0
    6.1840   -2.5300   -0.1840 H   0  0  0  0  0  0  0  0  0  0  0  0
   -5.1740    0.6730    0.1240 H   0  0  0  0  0  0  0  0  0  0  0  0
   -2.2400   -1.8400   -0.3080 H   0  0  0  0  0  0  0  0  0  0  0  0
   -2.7080   -1.8070    1.4100 H   0  0  0  0  0  0  0  0  0  0  0  0
   -4.9240   -0.4790    1.4580 H   0  0  0  0  0  0  0  0  0  0  0  0
   -1.2410    2.5490   -0.1350 H   0  0  0  0  0  0  0  0  0  0  0  0
 12 14  1  0  0  0  0
 12 13  2  0  0  0  0
 14 29  2  0  0  0  0
 13 21  1  0  0  0  0
  8 23  2  0  0  0  0
 21 29  1  0  0  0  0
 27 29  1  0  0  0  0
 17 27  2  0  0  0  0
 17 19  1  0  0  0  0
 20 23  1  0  0  0  0
  7 23  1  0  0  0  0
  6 19  1  0  0  0  0
 25 27  1  0  0  0  0
 15 20  1  0  0  0  0
 15 26  1  0  0  0  0
  2 25  1  0  0  0  0
 10 25  2  0  0  0  0
 16 26  1  0  0  0  0
 16 22  1  0  0  0  0
  2  4  1  0  0  0  0
 26 28  2  0  0  0  0
 11 24  2  0  0  0  0
  1  3  2  0  0  0  0
 24 28  1  0  0  0  0
 18 28  1  0  0  0  0
  5 22  1  0  0  0  0
  9 24  1  0  0  0  0
  1  4  1  0  0  0  0
  4  5  1  0  0  0  0
  5 18  1  0  0  0  0
  1 30  1  0  0  0  0
  2 31  1  0  0  0  0
  4 32  1  0  0  0  0
  5 33  1  0  0  0  0
  6 34  1  0  0  0  0
  6 35  1  0  0  0  0
  6 36  1  0  0  0  0
  7 37  1  0  0  0  0
  7 38  1  0  0  0  0
  9 39  1  0  0  0  0
 12 40  1  0  0  0  0
 13 41  1  0  0  0  0
 14 42  1  0  0  0  0
 15 43  1  0  0  0  0
 16 44  1  0  0  0  0
 16 45  1  0  0  0  0
 15 46  1  0  0  0  0
 18 47  1  0  0  0  0
M  END
> <OPENEYE_ISO_SMILES>
CO/N=C(/c1ccco1)\C(=O)N[C@H](C=O)[C@@H]2NC(=C(CS2)COC(=O)N)C(=O)O

> <OPENEYE_INCHI>
InChI=1S/C16H18N4O8S/c1-26-20-12(10-3-2-4-27-10)13(22)18-9(5-21)14-19-11(15(23)24)8(7-29-14)6-28-16(17)25/h2-5,9,14,19H,6-7H2,1H3,(H2,17,25)(H,18,22)(H,23,24)/b20-12-/t9-,14-/m1/s1

> <OPENEYE_INCHIKEY>
RUUDYXYLGTZCPN-VRVPSKPHSA-N

> <FORMULA>
C16H18N4O8S

$$$$
