REMARK  11 active torsions:
REMARK  status: ('A' for Active; 'I' for Inactive)
REMARK    1  A    between atoms: C_1  and  CA_4 
REMARK       I    between atoms: N_2  and  C_25 
REMARK    2  A    between atoms: N_2  and  CA_4 
REMARK    3  A    between atoms: CA_4  and  C_5 
REMARK       I    between atoms: N_7  and  C_23 
REMARK    4  A    between atoms: OXT_9  and  C_24 
REMARK    5  A    between atoms: C_15  and  O_20 
REMARK    6  A    between atoms: C_15  and  C_26 
REMARK    7  A    between atoms: N_17  and  O_19 
REMARK    8  A    between atoms: O_20  and  C_23 
REMARK    9  A    between atoms: C_24  and  CA_28 
REMARK   10  A    between atoms: C_25  and  C_27 
REMARK   11  A    between atoms: C_27  and  C_29 
ROOT
HETATM    1  C   UNL     1      -0.337   0.630  -0.225  1.00  0.00     0.173 C 
HETATM    2  C   UNL     1      -2.292  -1.223   0.589  1.00  0.00     0.115 C 
HETATM    3  N   UNL     1      -1.437   1.599  -0.115  1.00  0.00    -0.368 N 
HETATM    4  S   UNL     1      -0.623  -0.656   1.034  1.00  0.00    -0.137 SA
HETATM    5  C   UNL     1      -3.170  -0.031   0.327  1.00  0.00    -0.013 C 
HETATM    6  CA  UNL     1      -2.752   1.174   0.016  1.00  0.00     0.108 C 
HETATM    7  H   UNL     1      -1.241   2.549  -0.135  1.00  0.00     0.161 HD
ENDROOT
BRANCH   1   8
HETATM    8  CA  UNL     1       1.000   1.327   0.036  1.00  0.00     0.179 C 
BRANCH   8   9
HETATM    9  C   UNL     1       0.986   1.942   1.412  1.00  0.00     0.259 C 
HETATM   10  O   UNL     1       1.796   1.594   2.237  1.00  0.00    -0.305 OA
ENDBRANCH   8   9
BRANCH   8  11
HETATM   11  N   UNL     1       2.086   0.348  -0.050  1.00  0.00    -0.342 N 
HETATM   12  C   UNL     1       3.335   0.752  -0.358  1.00  0.00     0.276 C 
HETATM   13  O   UNL     1       3.542   1.912  -0.654  1.00  0.00    -0.266 OA
HETATM   14  H   UNL     1       1.907  -0.591   0.115  1.00  0.00     0.163 HD
BRANCH  12  15
HETATM   15  C   UNL     1       4.454  -0.219  -0.337  1.00  0.00     0.185 C 
HETATM   16  N   UNL     1       5.678   0.191  -0.530  1.00  0.00    -0.126 NA
BRANCH  16  17
HETATM   17  O   UNL     1       5.926   1.544  -0.867  1.00  0.00    -0.261 OA
HETATM   18  C   UNL     1       7.309   1.853  -1.049  1.00  0.00     0.240 C 
ENDBRANCH  16  17
BRANCH  15  19
HETATM   19  C   UNL     1       4.186  -1.648  -0.098  1.00  0.00     0.111 A 
HETATM   20  C   UNL     1       5.118  -2.641  -0.053  1.00  0.00     0.042 A 
HETATM   21  C   UNL     1       4.423  -3.838   0.199  1.00  0.00     0.027 A 
HETATM   22  C   UNL     1       3.115  -3.523   0.295  1.00  0.00     0.142 A 
HETATM   23  O   UNL     1       2.975  -2.201   0.115  1.00  0.00    -0.320 OA
ENDBRANCH  15  19
ENDBRANCH  12  15
ENDBRANCH   8  11
ENDBRANCH   1   8
BRANCH   6  24
HETATM   24  C   UNL     1      -3.796   2.189  -0.217  1.00  0.00     0.193 C 
HETATM   25  O   UNL     1      -4.143   2.923   0.687  1.00  0.00    -0.645 OA
BRANCH  24  26
HETATM   26  OXT UNL     1      -4.365   2.304  -1.434  1.00  0.00    -0.772 OA
HETATM   27  HXT UNL     1      -5.044   2.984  -1.538  1.00  0.00     0.167 HD
ENDBRANCH  24  26
ENDBRANCH   6  24
BRANCH   5  28
HETATM   28  C   UNL     1      -4.659  -0.238   0.428  1.00  0.00     0.218 C 
BRANCH  28  29
HETATM   29  O   UNL     1      -5.056  -1.332  -0.441  1.00  0.00    -0.300 OA
BRANCH  29  30
HETATM   30  C   UNL     1      -6.375  -1.581  -0.547  1.00  0.00     0.358 C 
HETATM   31  N   UNL     1      -6.810  -2.582  -1.338  1.00  0.00    -0.346 N 
HETATM   32  H   UNL     1      -7.761  -2.761  -1.414  1.00  0.00     0.161 HD
HETATM   33  H   UNL     1      -6.174  -3.123  -1.831  1.00  0.00     0.161 HD
HETATM   34  O   UNL     1      -7.173  -0.903   0.070  1.00  0.00    -0.239 OA
ENDBRANCH  29  30
ENDBRANCH  28  29
ENDBRANCH   5  28
TORSDOF 11
