ERF
  -OEChem-07282321083D

 27 28  0     0  0  0  0  0  0999 V2000
   -5.8300    0.6460   -0.4540 O   0  0  0  0  0  0  0  0  0  0  0  0
   -4.3290    0.5660    0.1240 P   0  0  0  0  0  0  0  0  0  0  0  0
   -3.7590    1.9300    0.2080 O   0  0  0  0  0  0  0  0  0  0  0  0
   -4.3530   -0.0970    1.5910 O   0  0  0  0  0  0  0  0  0  0  0  0
   -3.4230   -0.3340   -0.8570 O   0  0  0  0  0  0  0  0  0  0  0  0
   -2.0740   -0.4690   -0.4350 B   0  0  0  0  0  0  0  0  0  0  0  0
   -1.6360    0.1640    0.7580 O   0  0  0  0  0  0  0  0  0  0  0  0
   -1.0660   -1.3180   -1.2890 C   0  0  0  0  0  0  0  0  0  0  0  0
    0.2510   -1.3020   -0.6470 N   0  0  0  0  0  0  0  0  0  0  0  0
    1.2290   -0.3940   -0.8720 C   0  0  0  0  0  0  0  0  0  0  0  0
    2.2720   -0.7570   -0.0700 C   0  0  0  0  0  0  0  0  0  0  0  0
    1.8710   -1.8570    0.5910 N   0  0  0  0  0  0  0  0  0  0  0  0
    0.6710   -2.1460    0.2280 N   0  0  0  0  0  0  0  0  0  0  0  0
    3.5860   -0.0750    0.0490 C   0  0  0  0  0  0  0  0  0  0  0  0
    3.8980    1.0280   -0.6530 C   0  0  0  0  0  0  0  0  0  0  0  0
    5.5300    1.5420   -0.2460 S   0  0  0  0  0  0  0  0  0  0  0  0
    5.7090    0.2040    0.8800 C   0  0  0  0  0  0  0  0  0  0  0  0
    4.5930   -0.5230    0.9000 C   0  0  0  0  0  0  0  0  0  0  0  0
   -6.4320    1.1740    0.0870 H   0  0  0  0  0  0  0  0  0  0  0  0
   -4.7150   -0.9930    1.6110 H   0  0  0  0  0  0  0  0  0  0  0  0
   -0.7030    0.0160    0.9620 H   0  0  0  0  0  0  0  0  0  0  0  0
   -1.4240   -2.3450   -1.3580 H   0  0  0  0  0  0  0  0  0  0  0  0
   -0.9880   -0.8920   -2.2890 H   0  0  0  0  0  0  0  0  0  0  0  0
    1.1930    0.4470   -1.5480 H   0  0  0  0  0  0  0  0  0  0  0  0
    3.2470    1.5230   -1.3580 H   0  0  0  0  0  0  0  0  0  0  0  0
    6.5900    0.0030    1.4700 H   0  0  0  0  0  0  0  0  0  0  0  0
    4.4800   -1.3960    1.5260 H   0  0  0  0  0  0  0  0  0  0  0  0
  2  3  2  0  0  0  0
  2  4  1  0  0  0  0
  1  2  1  0  0  0  0
  2  5  1  0  0  0  0
 15 16  1  0  0  0  0
 16 17  1  0  0  0  0
  5  6  1  0  0  0  0
 14 15  2  0  0  0  0
 10 11  2  0  0  0  0
  9 10  1  0  0  0  0
 11 14  1  0  0  0  0
 14 18  1  0  0  0  0
 17 18  2  0  0  0  0
  6  8  1  0  0  0  0
  6  7  1  0  0  0  0
  8  9  1  0  0  0  0
 11 12  1  0  0  0  0
  9 13  1  0  0  0  0
 12 13  2  0  0  0  0
  1 19  1  0  0  0  0
  4 20  1  0  0  0  0
  7 21  1  0  0  0  0
  8 22  1  0  0  0  0
  8 23  1  0  0  0  0
 10 24  1  0  0  0  0
 15 25  1  0  0  0  0
 17 26  1  0  0  0  0
 18 27  1  0  0  0  0
M  END
> <OPENEYE_ISO_SMILES>
B(Cn1cc(nn1)c2ccsc2)(O)OP(=O)(O)O

> <OPENEYE_INCHI>
InChI=1S/C7H9BN3O5PS/c12-8(16-17(13,14)15)5-11-3-7(9-10-11)6-1-2-18-4-6/h1-4,12H,5H2,(H2,13,14,15)

> <OPENEYE_INCHIKEY>
CSAHOMHDQOWLFN-UHFFFAOYSA-N

> <FORMULA>
C7H9BN3O5PS

$$$$
