REMARK  8 active torsions:
REMARK  status: ('A' for Active; 'I' for Inactive)
REMARK    1  A    between atoms: O_1  and  P_2 
REMARK    2  A    between atoms: P_2  and  O_4 
REMARK    3  A    between atoms: P_2  and  O_5 
REMARK    4  A    between atoms: O_5  and  B_6 
REMARK    5  A    between atoms: B_6  and  C_8 
REMARK    6  A    between atoms: B_6  and  O_7 
REMARK    7  A    between atoms: C_8  and  N_9 
REMARK    8  A    between atoms: C_11  and  C_14 
ROOT
HETATM    1  C   UNL     1      -1.066  -1.318  -1.289  1.00  0.00     0.173 C 
ENDROOT
BRANCH   1   2
HETATM    2  B   UNL     1      -2.074  -0.469  -0.435  1.00  0.00     0.522 B 
BRANCH   2   3
HETATM    3  O   UNL     1      -3.423  -0.334  -0.857  1.00  0.00    -0.334 OA
BRANCH   3   4
HETATM    4  P   UNL     1      -4.329   0.566   0.124  1.00  0.00     0.375 P 
HETATM    5  O   UNL     1      -3.759   1.930   0.208  1.00  0.00    -0.632 OA
BRANCH   4   6
HETATM    6  O   UNL     1      -5.830   0.646  -0.454  1.00  0.00    -0.308 OA
HETATM    7  H   UNL     1      -6.432   1.174   0.087  1.00  0.00     0.222 HD
ENDBRANCH   4   6
BRANCH   4   8
HETATM    8  O   UNL     1      -4.353  -0.097   1.591  1.00  0.00    -0.308 OA
HETATM    9  H   UNL     1      -4.715  -0.993   1.611  1.00  0.00     0.222 HD
ENDBRANCH   4   8
ENDBRANCH   3   4
ENDBRANCH   2   3
BRANCH   2  10
HETATM   10  O   UNL     1      -1.636   0.164   0.758  1.00  0.00    -0.436 OA
HETATM   11  H   UNL     1      -0.703   0.016   0.962  1.00  0.00     0.184 HD
ENDBRANCH   2  10
ENDBRANCH   1   2
BRANCH   1  12
HETATM   12  N   UNL     1       0.251  -1.302  -0.647  1.00  0.00    -0.264 N 
HETATM   13  C   UNL     1       1.229  -0.394  -0.872  1.00  0.00     0.147 A 
HETATM   14  C   UNL     1       2.272  -0.757  -0.070  1.00  0.00     0.108 A 
HETATM   15  N   UNL     1       1.871  -1.857   0.591  1.00  0.00    -0.130 NA
HETATM   16  N   UNL     1       0.671  -2.146   0.228  1.00  0.00    -0.067 NA
BRANCH  14  17
HETATM   17  C   UNL     1       3.586  -0.075   0.049  1.00  0.00     0.003 A 
HETATM   18  C   UNL     1       3.898   1.028  -0.653  1.00  0.00     0.063 A 
HETATM   19  S   UNL     1       5.530   1.542  -0.246  1.00  0.00    -0.113 SA
HETATM   20  C   UNL     1       5.709   0.204   0.880  1.00  0.00     0.050 A 
HETATM   21  C   UNL     1       4.593  -0.523   0.900  1.00  0.00     0.021 A 
ENDBRANCH  14  17
ENDBRANCH   1  12
TORSDOF 8
