ETP
  -OEChem-07282321083D

 41 43  0     0  0  0  0  0  0999 V2000
    2.4040   -0.1180    5.1700 B   0  0  0  0  0  0  0  0  0  0  0  0
    3.1560    0.9020    5.8090 O   0  0  0  0  0  0  0  0  0  0  0  0
    2.7300   -1.4830    5.3880 O   0  0  0  0  0  0  0  0  0  0  0  0
    1.2130    0.2620    4.2210 C   0  0  0  0  0  0  0  0  0  0  0  0
    0.4770   -0.7370    3.5890 C   0  0  0  0  0  0  0  0  0  0  0  0
   -0.5770   -0.3940    2.7570 C   0  0  0  0  0  0  0  0  0  0  0  0
   -1.3220   -1.3930    2.1240 N   0  0  0  0  0  0  0  0  0  0  0  0
   -0.8900    0.9430    2.5470 C   0  0  0  0  0  0  0  0  0  0  0  0
   -0.1560    1.9340    3.1720 C   0  0  0  0  0  0  0  0  0  0  0  0
    0.8910    1.6010    4.0050 C   0  0  0  0  0  0  0  0  0  0  0  0
   -2.5770   -0.9830    1.1260 S   0  0  0  0  0  0  0  0  0  0  0  0
   -3.0000   -2.1970    0.5190 O   0  0  0  0  0  0  0  0  0  0  0  0
   -3.4040   -0.1100    1.8830 O   0  0  0  0  0  0  0  0  0  0  0  0
   -1.7120    1.7690   -0.2610 S   0  0  0  0  0  0  0  0  0  0  0  0
   -0.9890    1.8640   -1.8910 C   0  0  0  0  0  0  0  0  0  0  0  0
   -0.9500    0.5590   -2.2570 C   0  0  0  0  0  0  0  0  0  0  0  0
   -1.4200   -0.3970   -1.3770 C   0  0  0  0  0  0  0  0  0  0  0  0
   -1.9140   -0.0020   -0.1780 C   0  0  0  0  0  0  0  0  0  0  0  0
   -0.3060    0.0900   -3.8280 S   0  0  0  0  0  0  0  0  0  0  0  0
   -0.8750   -1.1790   -4.1150 O   0  0  0  0  0  0  0  0  0  0  0  0
   -0.4140    1.2440   -4.6500 O   0  0  0  0  0  0  0  0  0  0  0  0
    1.4200   -0.1930   -3.6250 C   0  0  0  0  0  0  0  0  0  0  0  0
    1.8790   -1.4540   -3.2930 C   0  0  0  0  0  0  0  0  0  0  0  0
    3.2340   -1.6770   -3.1340 C   0  0  0  0  0  0  0  0  0  0  0  0
    4.1300   -0.6390   -3.3080 C   0  0  0  0  0  0  0  0  0  0  0  0
    3.6720    0.6210   -3.6420 C   0  0  0  0  0  0  0  0  0  0  0  0
    2.3170    0.8430   -3.8050 C   0  0  0  0  0  0  0  0  0  0  0  0
    3.8330    0.4590    6.3410 H   0  0  0  0  0  0  0  0  0  0  0  0
    3.4830   -1.4970    5.9950 H   0  0  0  0  0  0  0  0  0  0  0  0
    0.7230   -1.7760    3.7530 H   0  0  0  0  0  0  0  0  0  0  0  0
   -1.1030   -2.3270    2.2710 H   0  0  0  0  0  0  0  0  0  0  0  0
   -1.7090    1.2090    1.8960 H   0  0  0  0  0  0  0  0  0  0  0  0
   -0.4030    2.9730    3.0070 H   0  0  0  0  0  0  0  0  0  0  0  0
    1.4630    2.3780    4.4910 H   0  0  0  0  0  0  0  0  0  0  0  0
   -0.6660    2.7350   -2.4420 H   0  0  0  0  0  0  0  0  0  0  0  0
   -1.4000   -1.4430   -1.6430 H   0  0  0  0  0  0  0  0  0  0  0  0
    1.1790   -2.2650   -3.1560 H   0  0  0  0  0  0  0  0  0  0  0  0
    3.5920   -2.6620   -2.8730 H   0  0  0  0  0  0  0  0  0  0  0  0
    5.1890   -0.8130   -3.1830 H   0  0  0  0  0  0  0  0  0  0  0  0
    4.3720    1.4320   -3.7780 H   0  0  0  0  0  0  0  0  0  0  0  0
    1.9580    1.8270   -4.0660 H   0  0  0  0  0  0  0  0  0  0  0  0
  1  2  1  0  0  0  0
  1  3  1  0  0  0  0
  1  4  1  0  0  0  0
  2 28  1  0  0  0  0
  3 29  1  0  0  0  0
  4  5  2  0  0  0  0
  4 10  1  0  0  0  0
  5  6  1  0  0  0  0
  5 30  1  0  0  0  0
  6  7  1  0  0  0  0
  6  8  2  0  0  0  0
  7 11  1  0  0  0  0
  7 31  1  0  0  0  0
  8  9  1  0  0  0  0
  8 32  1  0  0  0  0
  9 10  2  0  0  0  0
  9 33  1  0  0  0  0
 10 34  1  0  0  0  0
 11 12  2  0  0  0  0
 11 13  2  0  0  0  0
 11 18  1  0  0  0  0
 14 15  1  0  0  0  0
 14 18  1  0  0  0  0
 15 16  2  0  0  0  0
 15 35  1  0  0  0  0
 16 17  1  0  0  0  0
 16 19  1  0  0  0  0
 17 18  2  0  0  0  0
 17 36  1  0  0  0  0
 19 20  2  0  0  0  0
 19 21  2  0  0  0  0
 19 22  1  0  0  0  0
 22 23  2  0  0  0  0
 22 27  1  0  0  0  0
 23 24  1  0  0  0  0
 23 37  1  0  0  0  0
 24 25  2  0  0  0  0
 24 38  1  0  0  0  0
 25 26  1  0  0  0  0
 25 39  1  0  0  0  0
 26 27  2  0  0  0  0
 26 40  1  0  0  0  0
 27 41  1  0  0  0  0
M  END
> <OPENEYE_ISO_SMILES>
B(c1cccc(c1)NS(=O)(=O)c2cc(cs2)S(=O)(=O)c3ccccc3)(O)O

> <OPENEYE_INCHI>
InChI=1S/C16H14BNO6S3/c19-17(20)12-5-4-6-13(9-12)18-27(23,24)16-10-15(11-25-16)26(21,22)14-7-2-1-3-8-14/h1-11,18-20H

> <OPENEYE_INCHIKEY>
YZOKHYPIQNIFRQ-UHFFFAOYSA-N

> <FORMULA>
C16H14BNO6S3

$$$$
