REMARK  8 active torsions:
REMARK  status: ('A' for Active; 'I' for Inactive)
REMARK    1  A    between atoms: B_1  and  O_2 
REMARK    2  A    between atoms: B_1  and  O_3 
REMARK    3  A    between atoms: B_1  and  C_4 
REMARK    4  A    between atoms: C_6  and  N_7 
REMARK    5  A    between atoms: N_7  and  S_11 
REMARK    6  A    between atoms: S_11  and  C_18 
REMARK    7  A    between atoms: C_16  and  S_19 
REMARK    8  A    between atoms: S_19  and  C_22 
ROOT
HETATM    1  S   UNL     1      -2.577  -0.983   1.126  1.00  0.00     0.269 S 
HETATM    2  O   UNL     1      -3.000  -2.197   0.519  1.00  0.00    -0.200 OA
HETATM    3  O   UNL     1      -3.404  -0.110   1.883  1.00  0.00    -0.200 OA
ENDROOT
BRANCH   1   4
HETATM    4  N   UNL     1      -1.322  -1.393   2.124  1.00  0.00    -0.280 N 
HETATM    5  H   UNL     1      -1.103  -2.327   2.271  1.00  0.00     0.179 HD
BRANCH   4   6
HETATM    6  C   UNL     1      -0.577  -0.394   2.757  1.00  0.00     0.042 A 
HETATM    7  C   UNL     1       0.477  -0.737   3.589  1.00  0.00     0.030 A 
HETATM    8  C   UNL     1       1.213   0.262   4.221  1.00  0.00    -0.030 A 
HETATM    9  C   UNL     1       0.891   1.601   4.005  1.00  0.00     0.001 A 
HETATM   10  C   UNL     1      -0.156   1.934   3.172  1.00  0.00     0.002 A 
HETATM   11  C   UNL     1      -0.890   0.943   2.547  1.00  0.00     0.030 A 
BRANCH   8  12
HETATM   12  B   UNL     1       2.404  -0.118   5.170  1.00  0.00     0.529 B 
BRANCH  12  13
HETATM   13  O   UNL     1       3.156   0.902   5.809  1.00  0.00    -0.433 OA
HETATM   14  H   UNL     1       3.833   0.459   6.341  1.00  0.00     0.185 HD
ENDBRANCH  12  13
BRANCH  12  15
HETATM   15  O   UNL     1       2.730  -1.483   5.388  1.00  0.00    -0.433 OA
HETATM   16  H   UNL     1       3.483  -1.497   5.995  1.00  0.00     0.185 HD
ENDBRANCH  12  15
ENDBRANCH   8  12
ENDBRANCH   4   6
ENDBRANCH   1   4
BRANCH   1  17
HETATM   17  C   UNL     1      -1.914  -0.002  -0.178  1.00  0.00     0.121 A 
HETATM   18  S   UNL     1      -1.712   1.769  -0.261  1.00  0.00    -0.087 SA
HETATM   19  C   UNL     1      -0.989   1.864  -1.891  1.00  0.00     0.074 A 
HETATM   20  C   UNL     1      -0.950   0.559  -2.257  1.00  0.00     0.072 A 
HETATM   21  C   UNL     1      -1.420  -0.397  -1.377  1.00  0.00     0.057 A 
BRANCH  20  22
HETATM   22  S   UNL     1      -0.306   0.090  -3.828  1.00  0.00     0.207 S 
HETATM   23  O   UNL     1      -0.875  -1.179  -4.115  1.00  0.00    -0.217 OA
HETATM   24  O   UNL     1      -0.414   1.244  -4.650  1.00  0.00    -0.217 OA
BRANCH  22  25
HETATM   25  C   UNL     1       1.420  -0.193  -3.625  1.00  0.00     0.064 A 
HETATM   26  C   UNL     1       1.879  -1.454  -3.293  1.00  0.00     0.024 A 
HETATM   27  C   UNL     1       3.234  -1.677  -3.134  1.00  0.00     0.002 A 
HETATM   28  C   UNL     1       4.130  -0.639  -3.308  1.00  0.00     0.000 A 
HETATM   29  C   UNL     1       3.672   0.621  -3.642  1.00  0.00     0.002 A 
HETATM   30  C   UNL     1       2.317   0.843  -3.805  1.00  0.00     0.024 A 
ENDBRANCH  22  25
ENDBRANCH  20  22
ENDBRANCH   1  17
TORSDOF 8
