FDT
  -OEChem-07282321083D

 28 29  0     1  0  0  0  0  0999 V2000
   -1.4980   -0.7120   -1.2110 C   0  0  0  0  0  0  0  0  0  0  0  0
   -1.1370   -0.0510   -0.1230 C   0  0  0  0  0  0  0  0  0  0  0  0
   -2.2210    0.3400    0.6730 C   0  0  0  0  0  0  0  0  0  0  0  0
    0.1840    0.3620    0.4310 C   0  0  2  0  0  0  0  0  0  0  0  0
    1.5530   -0.4770   -0.3920 S   0  0  0  0  0  0  0  0  0  0  0  0
   -2.0360    1.0430    1.6470 O   0  0  0  0  0  0  0  0  0  0  0  0
   -0.6740   -1.0860   -2.2020 N   0  0  0  0  0  0  0  0  0  0  0  0
    0.2870   -0.2260   -2.7590 C   0  0  0  0  0  0  0  0  0  0  0  0
    0.2230    0.0360    1.9020 C   0  0  0  0  0  0  0  0  0  0  0  0
    1.3500    0.1040   -2.0410 C   0  0  0  0  0  0  0  0  0  0  0  0
    0.1220    0.2790   -4.0700 C   0  0  0  0  0  0  0  0  0  0  0  0
    1.0510    1.1050   -4.5970 O   0  0  0  0  0  0  0  0  0  0  0  0
    0.5400    0.8810    2.9110 C   0  0  0  0  0  0  0  0  0  0  0  0
   -0.8560   -0.0290   -4.7230 O   0  0  0  0  0  0  0  0  0  0  0  0
   -0.0500   -1.1440    2.4680 N   0  0  0  0  0  0  0  0  0  0  0  0
    0.0940   -1.0390    3.7420 N   0  0  0  0  0  0  0  0  0  0  0  0
    0.4420    0.1600    4.0510 N   0  0  0  0  0  0  0  0  0  0  0  0
    0.6940    0.6580    5.4060 C   0  0  0  0  0  0  0  0  0  0  0  0
   -2.5410   -0.9710   -1.3090 H   0  0  0  0  0  0  0  0  0  0  0  0
   -3.2200    0.0160    0.4210 H   0  0  0  0  0  0  0  0  0  0  0  0
    0.3000    1.4380    0.3030 H   0  0  0  0  0  0  0  0  0  0  0  0
   -0.7460   -1.9890   -2.5490 H   0  0  0  0  0  0  0  0  0  0  0  0
    2.1050    0.7430   -2.4750 H   0  0  0  0  0  0  0  0  0  0  0  0
    0.7510    1.3310   -5.4880 H   0  0  0  0  0  0  0  0  0  0  0  0
    0.8160    1.9220    2.8230 H   0  0  0  0  0  0  0  0  0  0  0  0
   -0.2300    1.0510    5.8270 H   0  0  0  0  0  0  0  0  0  0  0  0
    1.0600   -0.1560    6.0300 H   0  0  0  0  0  0  0  0  0  0  0  0
    1.4420    1.4510    5.3680 H   0  0  0  0  0  0  0  0  0  0  0  0
  1  2  2  0  0  0  0
  1  7  1  0  0  0  0
  1 19  1  0  0  0  0
  2  3  1  0  0  0  0
  2  4  1  0  0  0  0
  3  6  2  0  0  0  0
  3 20  1  0  0  0  0
  4  5  1  0  0  0  0
  4  9  1  0  0  0  0
  4 21  1  0  0  0  0
  5 10  1  0  0  0  0
  7  8  1  0  0  0  0
  7 22  1  0  0  0  0
  8 10  2  0  0  0  0
  8 11  1  0  0  0  0
  9 13  2  0  0  0  0
  9 15  1  0  0  0  0
 10 23  1  0  0  0  0
 11 12  1  0  0  0  0
 11 14  2  0  0  0  0
 12 24  1  0  0  0  0
 13 17  1  0  0  0  0
 13 25  1  0  0  0  0
 15 16  2  0  0  0  0
 16 17  1  0  0  0  0
 17 18  1  0  0  0  0
 18 26  1  0  0  0  0
 18 27  1  0  0  0  0
 18 28  1  0  0  0  0
M  END
> <OPENEYE_ISO_SMILES>
Cn1cc(nn1)[C@@H]2C(=CNC(=CS2)C(=O)O)C=O

> <OPENEYE_INCHI>
InChI=1S/C10H10N4O3S/c1-14-3-7(12-13-14)9-6(4-15)2-11-8(5-18-9)10(16)17/h2-5,9,11H,1H3,(H,16,17)/t9-/m0/s1

> <OPENEYE_INCHIKEY>
BCPHJDLBOJMWOD-VIFPVBQESA-N

> <FORMULA>
C10H10N4O3S

$$$$
