REMARK  11 active torsions:
REMARK  status: ('A' for Active; 'I' for Inactive)
REMARK    1  A    between atoms: C_1  and  S_24 
REMARK    2  A    between atoms: CA_2  and  C_6 
REMARK    3  A    between atoms: C_4  and  S_24 
REMARK    4  A    between atoms: C_6  and  OXT_19 
REMARK    5  A    between atoms: C_8  and  C_10 
REMARK    6  A    between atoms: C_9  and  C_12 
REMARK    7  A    between atoms: C_10  and  C_11 
REMARK    8  A    between atoms: C_10  and  C_13 
REMARK    9  A    between atoms: C_11  and  O_21 
REMARK       I    between atoms: C_12  and  N_18 
REMARK   10  A    between atoms: C_13  and  O_23 
REMARK   11  A    between atoms: C_13  and  O_29 
ROOT
HETATM    1  C   UNL     1       0.894   0.942   0.599  1.00  0.00     0.108 C 
HETATM    2  CA  UNL     1       1.982   1.788  -0.024  1.00  0.00     0.116 C 
HETATM    3  C   UNL     1       1.581  -0.422   0.851  1.00  0.00     0.049 C 
HETATM    4  C   UNL     1       2.724  -0.367  -0.190  1.00  0.00     0.121 C 
HETATM    5  N   UNL     1       2.947   1.067  -0.437  1.00  0.00    -0.280 NA
ENDROOT
BRANCH   1   6
HETATM    6  S   UNL     1      -0.500   0.752  -0.546  1.00  0.00    -0.151 SA
BRANCH   6   7
HETATM    7  C   UNL     1      -1.748  -0.090   0.467  1.00  0.00     0.078 C 
HETATM    8  C   UNL     1      -2.976  -0.487  -0.394  1.00  0.00     0.062 C 
HETATM    9  C   UNL     1      -4.103  -0.527   0.669  1.00  0.00     0.312 C 
HETATM   10  N   UNL     1      -3.793   0.588   1.589  1.00  0.00     0.098 N 
HETATM   11  C   UNL     1      -2.350   0.878   1.507  1.00  0.00     0.285 C 
HETATM   12  H   UNL     1      -4.063   0.362   2.535  1.00  0.00     0.317 HD
BRANCH   9  13
HETATM   13  C   UNL     1      -5.445  -0.313   0.018  1.00  0.00     0.252 C 
HETATM   14  O   UNL     1      -5.971   0.779   0.058  1.00  0.00    -0.271 OA
HETATM   15  N   UNL     1      -6.061  -1.335  -0.609  1.00  0.00    -0.359 N 
HETATM   16  C   UNL     1      -5.425  -2.654  -0.657  1.00  0.00     0.152 C 
HETATM   17  C   UNL     1      -7.366  -1.127  -1.241  1.00  0.00     0.152 C 
ENDBRANCH   9  13
ENDBRANCH   6   7
ENDBRANCH   1   6
BRANCH   2  18
HETATM   18  C   UNL     1       1.931   3.266  -0.139  1.00  0.00     0.192 C 
HETATM   19  O   UNL     1       1.015   3.883   0.364  1.00  0.00    -0.645 OA
BRANCH  18  20
HETATM   20  OXT UNL     1       2.902   3.923  -0.803  1.00  0.00    -0.772 OA
HETATM   21  HXT UNL     1       2.826   4.886  -0.851  1.00  0.00     0.167 HD
ENDBRANCH  18  20
ENDBRANCH   2  18
BRANCH   4  22
HETATM   22  C   UNL     1       3.990  -1.013   0.377  1.00  0.00     0.089 C 
BRANCH  22  23
HETATM   23  C   UNL     1       3.704  -2.475   0.728  1.00  0.00     0.175 C 
BRANCH  23  24
HETATM   24  O   UNL     1       4.849  -3.045   1.364  1.00  0.00    -0.400 OA
HETATM   25  H   UNL     1       4.739  -3.972   1.615  1.00  0.00     0.209 HD
ENDBRANCH  23  24
ENDBRANCH  22  23
BRANCH  22  26
HETATM   26  C   UNL     1       5.106  -0.949  -0.668  1.00  0.00     0.262 C 
BRANCH  26  27
HETATM   27  O   UNL     1       4.699  -1.651  -1.844  1.00  0.00    -0.371 OA
HETATM   28  H   UNL     1       4.501  -2.586  -1.696  1.00  0.00     0.212 HD
ENDBRANCH  26  27
BRANCH  26  29
HETATM   29  O   UNL     1       6.289  -1.552  -0.139  1.00  0.00    -0.371 OA
HETATM   30  H   UNL     1       7.040  -1.547  -0.748  1.00  0.00     0.212 HD
ENDBRANCH  26  29
ENDBRANCH  22  26
ENDBRANCH   4  22
TORSDOF 11
