FDX
  -OEChem-07282321083D

 50 51  0     1  0  0  0  0  0999 V2000
    0.8940    0.9420    0.5990 C   0  0  2  0  0  0  0  0  0  0  0  0
    1.9820    1.7880   -0.0240 C   0  0  0  0  0  0  0  0  0  0  0  0
    1.5810   -0.4220    0.8510 C   0  0  0  0  0  0  0  0  0  0  0  0
   -1.7480   -0.0900    0.4670 C   0  0  1  0  0  0  0  0  0  0  0  0
   -2.3500    0.8780    1.5070 C   0  0  0  0  0  0  0  0  0  0  0  0
    1.9310    3.2660   -0.1390 C   0  0  0  0  0  0  0  0  0  0  0  0
   -2.9760   -0.4870   -0.3940 C   0  0  0  0  0  0  0  0  0  0  0  0
    2.7240   -0.3670   -0.1900 C   0  0  2  0  0  0  0  0  0  0  0  0
   -4.1030   -0.5270    0.6690 C   0  0  2  0  0  0  0  0  0  0  0  0
    3.9900   -1.0130    0.3770 C   0  0  1  0  0  0  0  0  0  0  0  0
    3.7040   -2.4750    0.7280 C   0  0  0  0  0  0  0  0  0  0  0  0
   -5.4450   -0.3130    0.0180 C   0  0  0  0  0  0  0  0  0  0  0  0
    5.1060   -0.9490   -0.6680 C   0  0  0  0  0  0  0  0  0  0  0  0
   -5.4250   -2.6540   -0.6570 C   0  0  0  0  0  0  0  0  0  0  0  0
   -7.3660   -1.1270   -1.2410 C   0  0  0  0  0  0  0  0  0  0  0  0
   -3.7930    0.5880    1.5890 N   0  0  0  0  0  0  0  0  0  0  0  0
    2.9470    1.0670   -0.4370 N   0  0  0  0  0  0  0  0  0  0  0  0
   -6.0610   -1.3350   -0.6090 N   0  0  0  0  0  0  0  0  0  0  0  0
    2.9020    3.9230   -0.8030 O   0  0  0  0  0  0  0  0  0  0  0  0
    1.0150    3.8830    0.3640 O   0  0  0  0  0  0  0  0  0  0  0  0
    4.8490   -3.0450    1.3640 O   0  0  0  0  0  0  0  0  0  0  0  0
   -5.9710    0.7790    0.0580 O   0  0  0  0  0  0  0  0  0  0  0  0
    4.6990   -1.6510   -1.8440 O   0  0  0  0  0  0  0  0  0  0  0  0
   -0.5000    0.7520   -0.5460 S   0  0  0  0  0  0  0  0  0  0  0  0
    0.5590    1.3820    1.5390 H   0  0  0  0  0  0  0  0  0  0  0  0
    1.9760   -0.4820    1.8650 H   0  0  0  0  0  0  0  0  0  0  0  0
    0.9010   -1.2480    0.6470 H   0  0  0  0  0  0  0  0  0  0  0  0
   -1.3210   -0.9650    0.9570 H   0  0  0  0  0  0  0  0  0  0  0  0
   -1.8830    0.7160    2.4780 H   0  0  0  0  0  0  0  0  0  0  0  0
   -2.1970    1.9090    1.1860 H   0  0  0  0  0  0  0  0  0  0  0  0
   -3.1810    0.2680   -1.1530 H   0  0  0  0  0  0  0  0  0  0  0  0
   -2.8330   -1.4670   -0.8490 H   0  0  0  0  0  0  0  0  0  0  0  0
    2.4220   -0.8680   -1.1100 H   0  0  0  0  0  0  0  0  0  0  0  0
   -4.0860   -1.4760    1.2040 H   0  0  0  0  0  0  0  0  0  0  0  0
    4.3010   -0.4780    1.2740 H   0  0  0  0  0  0  0  0  0  0  0  0
    2.8500   -2.5250    1.4040 H   0  0  0  0  0  0  0  0  0  0  0  0
    3.4790   -3.0300   -0.1830 H   0  0  0  0  0  0  0  0  0  0  0  0
    5.3100    0.0920   -0.9180 H   0  0  0  0  0  0  0  0  0  0  0  0
   -5.7340   -3.2380    0.2090 H   0  0  0  0  0  0  0  0  0  0  0  0
   -5.7270   -3.1690   -1.5690 H   0  0  0  0  0  0  0  0  0  0  0  0
   -4.3420   -2.5360   -0.6480 H   0  0  0  0  0  0  0  0  0  0  0  0
   -7.2220   -0.8180   -2.2760 H   0  0  0  0  0  0  0  0  0  0  0  0
   -7.9350   -2.0560   -1.2140 H   0  0  0  0  0  0  0  0  0  0  0  0
   -7.9110   -0.3510   -0.7030 H   0  0  0  0  0  0  0  0  0  0  0  0
   -4.0630    0.3620    2.5350 H   0  0  0  0  0  0  0  0  0  0  0  0
    2.8260    4.8860   -0.8510 H   0  0  0  0  0  0  0  0  0  0  0  0
    4.7390   -3.9720    1.6150 H   0  0  0  0  0  0  0  0  0  0  0  0
    4.5010   -2.5860   -1.6960 H   0  0  0  0  0  0  0  0  0  0  0  0
    6.2890   -1.5520   -0.1390 O   0  0  0  0  0  0  0  0  0  0  0  0
    7.0400   -1.5470   -0.7480 H   0  0  0  0  0  0  0  0  0  0  0  0
 11 21  1  0  0  0  0
 10 11  1  0  0  0  0
 13 23  1  0  0  0  0
 10 13  1  0  0  0  0
  8 10  1  0  0  0  0
  3  8  1  0  0  0  0
  8 17  1  0  0  0  0
  1  3  1  0  0  0  0
  2 17  2  0  0  0  0
  1  2  1  0  0  0  0
  2  6  1  0  0  0  0
  6 20  2  0  0  0  0
  1 24  1  0  0  0  0
  6 19  1  0  0  0  0
  4 24  1  0  0  0  0
  4  7  1  0  0  0  0
  4  5  1  0  0  0  0
  7  9  1  0  0  0  0
  5 16  1  0  0  0  0
  9 16  1  0  0  0  0
  9 12  1  0  0  0  0
 12 22  2  0  0  0  0
 12 18  1  0  0  0  0
 15 18  1  0  0  0  0
 14 18  1  0  0  0  0
  1 25  1  0  0  0  0
  3 26  1  0  0  0  0
  3 27  1  0  0  0  0
  4 28  1  0  0  0  0
  5 29  1  0  0  0  0
  5 30  1  0  0  0  0
  7 31  1  0  0  0  0
  7 32  1  0  0  0  0
  8 33  1  0  0  0  0
  9 34  1  0  0  0  0
 10 35  1  0  0  0  0
 11 36  1  0  0  0  0
 11 37  1  0  0  0  0
 13 38  1  0  0  0  0
 14 39  1  0  0  0  0
 14 40  1  0  0  0  0
 14 41  1  0  0  0  0
 15 42  1  0  0  0  0
 15 43  1  0  0  0  0
 15 44  1  0  0  0  0
 16 45  1  0  0  0  0
 19 46  1  0  0  0  0
 21 47  1  0  0  0  0
 23 48  1  0  0  0  0
 13 49  1  0  0  0  0
 49 50  1  0  0  0  0
M  END
> <OPENEYE_ISO_SMILES>
CN(C)C(=O)[C@H]1C[C@H](CN1)S[C@H]2C[C@@H](N=C2C(=O)O)[C@@H](CO)C(O)O

> <OPENEYE_INCHI>
InChI=1S/C15H25N3O6S/c1-18(2)13(20)10-3-7(5-16-10)25-11-4-9(8(6-19)14(21)22)17-12(11)15(23)24/h7-11,14,16,19,21-22H,3-6H2,1-2H3,(H,23,24)/t7-,8-,9-,10-,11+/m1/s1

> <OPENEYE_INCHIKEY>
XKDKVNYTYXSQPL-ILAIQSSSSA-N

> <FORMULA>
C15H25N3O6S

$$$$
