FK2
  -OEChem-07282321083D

 10  9  0     0  0  0  0  0  0999 V2000
    0.2910    0.8030    0.2140 C   0  0  0  0  0  0  0  0  0  0  0  0
    1.4860   -0.1040    0.3580 C   0  0  0  0  0  0  0  0  0  0  0  0
    2.4410    0.0370   -0.3680 O   0  0  0  0  0  0  0  0  0  0  0  0
   -0.9490   -0.0290    0.0120 C   0  0  0  0  0  0  0  0  0  0  0  0
   -0.8710   -1.2340   -0.0130 O   0  0  0  0  0  0  0  0  0  0  0  0
   -2.1410    0.5700   -0.1400 O   0  0  0  0  0  0  0  0  0  0  0  0
    0.1820    1.4060    1.1160 H   0  0  0  0  0  0  0  0  0  0  0  0
    0.4330    1.4580   -0.6460 H   0  0  0  0  0  0  0  0  0  0  0  0
    1.4880   -0.8790    1.1090 H   0  0  0  0  0  0  0  0  0  0  0  0
   -2.9080   -0.0060   -0.2670 H   0  0  0  0  0  0  0  0  0  0  0  0
  2  3  2  0  0  0  0
  1  2  1  0  0  0  0
  1  4  1  0  0  0  0
  4  5  2  0  0  0  0
  4  6  1  0  0  0  0
  1  7  1  0  0  0  0
  1  8  1  0  0  0  0
  2  9  1  0  0  0  0
  6 10  1  0  0  0  0
M  END
> <OPENEYE_ISO_SMILES>
C(C=O)C(=O)O

> <OPENEYE_INCHI>
InChI=1S/C3H4O3/c4-2-1-3(5)6/h2H,1H2,(H,5,6)

> <OPENEYE_INCHIKEY>
OAKURXIZZOAYBC-UHFFFAOYSA-N

> <FORMULA>
C3H4O3

$$$$
