FOS
  -OEChem-07282321083D

 28 28  0     0  0  0  0  0  0999 V2000
   -0.1680   -0.3720   -3.2100 C   0  0  0  0  0  0  0  0  0  0  0  0
    1.1330   -0.6590   -3.5770 C   0  0  0  0  0  0  0  0  0  0  0  0
    1.6100   -0.2500   -4.8080 C   0  0  0  0  0  0  0  0  0  0  0  0
    0.7860    0.4450   -5.6720 C   0  0  0  0  0  0  0  0  0  0  0  0
   -0.5150    0.7310   -5.3060 C   0  0  0  0  0  0  0  0  0  0  0  0
   -0.9940    0.3180   -4.0770 C   0  0  0  0  0  0  0  0  0  0  0  0
   -0.6880   -0.8180   -1.8680 C   0  0  0  0  0  0  0  0  0  0  0  0
   -0.4390    0.2180   -0.8830 O   0  0  0  0  0  0  0  0  0  0  0  0
   -0.8210    0.0390    0.3940 C   0  0  0  0  0  0  0  0  0  0  0  0
   -1.3750   -0.9910    0.7240 O   0  0  0  0  0  0  0  0  0  0  0  0
   -0.5900    1.0020    1.3080 N   0  0  0  0  0  0  0  0  0  0  0  0
   -1.0060    0.8060    2.6990 C   0  0  0  0  0  0  0  0  0  0  0  0
    0.3470    0.0200    3.6340 P   0  0  0  0  0  0  0  0  0  0  0  0
    0.6690   -1.2900    3.0260 O   0  0  0  0  0  0  0  0  0  0  0  0
   -0.1100   -0.1940    5.1620 O   0  0  0  0  0  0  0  0  0  0  0  0
    1.6490    0.9660    3.5910 O   0  0  0  0  0  0  0  0  0  0  0  0
    1.7770   -1.2030   -2.9010 H   0  0  0  0  0  0  0  0  0  0  0  0
    2.6280   -0.4730   -5.0940 H   0  0  0  0  0  0  0  0  0  0  0  0
    1.1590    0.7650   -6.6340 H   0  0  0  0  0  0  0  0  0  0  0  0
   -1.1590    1.2740   -5.9810 H   0  0  0  0  0  0  0  0  0  0  0  0
   -2.0110    0.5410   -3.7910 H   0  0  0  0  0  0  0  0  0  0  0  0
   -0.1790   -1.7340   -1.5670 H   0  0  0  0  0  0  0  0  0  0  0  0
   -1.7600   -1.0040   -1.9370 H   0  0  0  0  0  0  0  0  0  0  0  0
   -0.1480    1.8240    1.0450 H   0  0  0  0  0  0  0  0  0  0  0  0
   -1.8880    0.1660    2.7290 H   0  0  0  0  0  0  0  0  0  0  0  0
   -1.2430    1.7710    3.1470 H   0  0  0  0  0  0  0  0  0  0  0  0
    0.6320   -0.6110    5.6200 H   0  0  0  0  0  0  0  0  0  0  0  0
    1.3960    1.8070    3.9950 H   0  0  0  0  0  0  0  0  0  0  0  0
  1  2  2  0  0  0  0
  1  6  1  0  0  0  0
  1  7  1  0  0  0  0
  2  3  1  0  0  0  0
  2 17  1  0  0  0  0
  3  4  2  0  0  0  0
  3 18  1  0  0  0  0
  4  5  1  0  0  0  0
  4 19  1  0  0  0  0
  5  6  2  0  0  0  0
  5 20  1  0  0  0  0
  6 21  1  0  0  0  0
  7  8  1  0  0  0  0
  7 22  1  0  0  0  0
  7 23  1  0  0  0  0
  8  9  1  0  0  0  0
  9 10  2  0  0  0  0
  9 11  1  0  0  0  0
 11 12  1  0  0  0  0
 11 24  1  0  0  0  0
 12 13  1  0  0  0  0
 12 25  1  0  0  0  0
 12 26  1  0  0  0  0
 13 14  2  0  0  0  0
 13 15  1  0  0  0  0
 13 16  1  0  0  0  0
 15 27  1  0  0  0  0
 16 28  1  0  0  0  0
M  END
> <OPENEYE_ISO_SMILES>
c1ccc(cc1)COC(=O)NCP(=O)(O)O

> <OPENEYE_INCHI>
InChI=1S/C9H12NO5P/c11-9(10-7-16(12,13)14)15-6-8-4-2-1-3-5-8/h1-5H,6-7H2,(H,10,11)(H2,12,13,14)

> <OPENEYE_INCHIKEY>
WUNKRZNFNIYEPN-UHFFFAOYSA-N

> <FORMULA>
C9H12NO5P

$$$$
