REMARK  7 active torsions:
REMARK  status: ('A' for Active; 'I' for Inactive)
REMARK    1  A    between atoms: C_1  and  C_7 
REMARK    2  A    between atoms: C_7  and  O_8 
REMARK    3  A    between atoms: O_8  and  C_9 
REMARK       I    between atoms: C_9  and  N_11 
REMARK    4  A    between atoms: N_11  and  C_12 
REMARK    5  A    between atoms: C_12  and  P_13 
REMARK    6  A    between atoms: P_13  and  O_15 
REMARK    7  A    between atoms: P_13  and  O_16 
ROOT
HETATM    1  C   UNL     1      -0.821   0.039   0.394  1.00  0.00     0.361 C 
HETATM    2  O   UNL     1      -1.375  -0.991   0.724  1.00  0.00    -0.239 OA
HETATM    3  N   UNL     1      -0.590   1.002   1.308  1.00  0.00    -0.326 N 
HETATM    4  H   UNL     1      -0.148   1.824   1.045  1.00  0.00     0.165 HD
ENDROOT
BRANCH   1   5
HETATM    5  O   UNL     1      -0.439   0.218  -0.883  1.00  0.00    -0.299 OA
BRANCH   5   6
HETATM    6  C   UNL     1      -0.688  -0.818  -1.868  1.00  0.00     0.219 C 
BRANCH   6   7
HETATM    7  C   UNL     1      -0.168  -0.372  -3.210  1.00  0.00    -0.034 A 
HETATM    8  C   UNL     1       1.133  -0.659  -3.577  1.00  0.00     0.009 A 
HETATM    9  C   UNL     1       1.610  -0.250  -4.808  1.00  0.00     0.001 A 
HETATM   10  C   UNL     1       0.786   0.445  -5.672  1.00  0.00     0.000 A 
HETATM   11  C   UNL     1      -0.515   0.731  -5.306  1.00  0.00     0.001 A 
HETATM   12  C   UNL     1      -0.994   0.318  -4.077  1.00  0.00     0.009 A 
ENDBRANCH   6   7
ENDBRANCH   5   6
ENDBRANCH   1   5
BRANCH   3  13
HETATM   13  C   UNL     1      -1.006   0.806   2.699  1.00  0.00     0.249 C 
BRANCH  13  14
HETATM   14  P   UNL     1       0.347   0.020   3.634  1.00  0.00     0.254 P 
HETATM   15  O   UNL     1       0.669  -1.290   3.026  1.00  0.00    -0.652 OA
BRANCH  14  16
HETATM   16  O   UNL     1      -0.110  -0.194   5.162  1.00  0.00    -0.328 OA
HETATM   17  H   UNL     1       0.632  -0.611   5.620  1.00  0.00     0.220 HD
ENDBRANCH  14  16
BRANCH  14  18
HETATM   18  O   UNL     1       1.649   0.966   3.591  1.00  0.00    -0.328 OA
HETATM   19  H   UNL     1       1.396   1.807   3.995  1.00  0.00     0.220 HD
ENDBRANCH  14  18
ENDBRANCH  13  14
ENDBRANCH   3  13
TORSDOF 7
