FZS
  -OEChem-07282321083D

 43 44  0     1  0  0  0  0  0999 V2000
   -0.2040    3.0820   -2.2050 O   0  0  0  0  0  0  0  0  0  0  0  0
    0.6930    1.2400   -0.1610 N   0  0  0  0  0  0  0  0  0  0  0  0
   -0.1110    2.4320    0.1210 C   0  0  1  0  0  0  0  0  0  0  0  0
    0.2090    3.5180   -0.9080 C   0  0  0  0  0  0  0  0  0  0  0  0
   -1.5970    2.0760    0.0420 C   0  0  2  0  0  0  0  0  0  0  0  0
    5.9860    0.7790    1.3360 C   0  0  0  0  0  0  0  0  0  0  0  0
    2.6320   -2.5370   -0.3750 C   0  0  0  0  0  0  0  0  0  0  0  0
   -4.1500   -1.4340   -0.1280 C   0  0  0  0  0  0  0  0  0  0  0  0
   -3.6240    0.6680   -1.3150 C   0  0  0  0  0  0  0  0  0  0  0  0
   -2.9050   -0.6480    2.2890 C   0  0  0  0  0  0  0  0  0  0  0  0
    1.9480    1.1450    0.3200 C   0  0  0  0  0  0  0  0  0  0  0  0
   -3.5270   -0.2590   -0.1190 C   0  0  0  0  0  0  0  0  0  0  0  0
    2.7040   -0.1220    0.1720 C   0  0  0  0  0  0  0  0  0  0  0  0
   -2.7370    0.1530    1.0480 C   0  0  0  0  0  0  0  0  0  0  0  0
    0.2610   -2.4540   -1.1440 C   0  0  0  0  0  0  0  0  0  0  0  0
    2.0200   -1.3380   -0.3180 C   0  0  0  0  0  0  0  0  0  0  0  0
   -1.0290   -2.6390   -1.6110 N   0  0  0  0  0  0  0  0  0  0  0  0
    3.9700   -0.1640    0.4750 N   0  0  0  0  0  0  0  0  0  0  0  0
    0.7540   -1.3260   -0.7360 N   0  0  0  0  0  0  0  0  0  0  0  0
   -1.9220    1.1320    1.0990 N   0  0  0  0  0  0  0  0  0  0  0  0
   -3.7370   -1.5310    2.3340 O   0  0  0  0  0  0  0  0  0  0  0  0
    2.4610    2.0970    0.8740 O   0  0  0  0  0  0  0  0  0  0  0  0
   -2.1340   -0.3950    3.3630 O   0  0  0  0  0  0  0  0  0  0  0  0
    4.5970    0.9650    1.0570 O   0  0  0  0  0  0  0  0  0  0  0  0
   -1.9560    1.3510   -1.5840 S   0  0  0  0  0  0  0  0  0  0  0  0
    1.4850   -3.7130   -1.0110 S   0  0  0  0  0  0  0  0  0  0  0  0
   -0.0320    3.7220   -2.9090 H   0  0  0  0  0  0  0  0  0  0  0  0
    0.3210    0.5200   -0.6930 H   0  0  0  0  0  0  0  0  0  0  0  0
    0.1220    2.7990    1.1210 H   0  0  0  0  0  0  0  0  0  0  0  0
    1.2820    3.7090   -0.9140 H   0  0  0  0  0  0  0  0  0  0  0  0
   -0.3210    4.4340   -0.6470 H   0  0  0  0  0  0  0  0  0  0  0  0
   -2.1910    2.9800    0.1700 H   0  0  0  0  0  0  0  0  0  0  0  0
    6.1090   -0.0520    2.0310 H   0  0  0  0  0  0  0  0  0  0  0  0
    6.5160    0.5590    0.4090 H   0  0  0  0  0  0  0  0  0  0  0  0
    6.3920    1.6880    1.7800 H   0  0  0  0  0  0  0  0  0  0  0  0
    3.6520   -2.7410   -0.0860 H   0  0  0  0  0  0  0  0  0  0  0  0
   -4.8100   -1.6890   -0.9430 H   0  0  0  0  0  0  0  0  0  0  0  0
   -3.9960   -2.1330    0.6810 H   0  0  0  0  0  0  0  0  0  0  0  0
   -3.9450    0.1100   -2.1940 H   0  0  0  0  0  0  0  0  0  0  0  0
   -4.3270    1.4730   -1.1060 H   0  0  0  0  0  0  0  0  0  0  0  0
   -1.6430   -1.8890   -1.6520 H   0  0  0  0  0  0  0  0  0  0  0  0
   -1.3190   -3.5190   -1.8990 H   0  0  0  0  0  0  0  0  0  0  0  0
   -2.2800   -0.9420    4.1470 H   0  0  0  0  0  0  0  0  0  0  0  0
  9 12  1  0  0  0  0
  9 25  1  0  0  0  0
  8 12  2  0  0  0  0
 12 14  1  0  0  0  0
  5 25  1  0  0  0  0
  5 20  1  0  0  0  0
  3  5  1  0  0  0  0
 11 22  2  0  0  0  0
 14 20  2  0  0  0  0
 10 14  1  0  0  0  0
 10 21  2  0  0  0  0
  2 11  1  0  0  0  0
 11 13  1  0  0  0  0
  2  3  1  0  0  0  0
  3  4  1  0  0  0  0
 10 23  1  0  0  0  0
  1  4  1  0  0  0  0
  6 24  1  0  0  0  0
 18 24  1  0  0  0  0
 13 18  2  0  0  0  0
 13 16  1  0  0  0  0
  7 16  2  0  0  0  0
  7 26  1  0  0  0  0
 16 19  1  0  0  0  0
 15 26  1  0  0  0  0
 15 19  2  0  0  0  0
 15 17  1  0  0  0  0
  1 27  1  0  0  0  0
  2 28  1  0  0  0  0
  3 29  1  0  0  0  0
  4 30  1  0  0  0  0
  4 31  1  0  0  0  0
  5 32  1  0  0  0  0
  6 33  1  0  0  0  0
  6 34  1  0  0  0  0
  6 35  1  0  0  0  0
  7 36  1  0  0  0  0
  8 37  1  0  0  0  0
  8 38  1  0  0  0  0
  9 39  1  0  0  0  0
  9 40  1  0  0  0  0
 17 41  1  0  0  0  0
 17 42  1  0  0  0  0
 23 43  1  0  0  0  0
M  END
> <OPENEYE_ISO_SMILES>
CO/N=C(/c1csc(n1)N)\C(=O)N[C@@H](CO)[C@@H]2N=C(C(=C)CS2)C(=O)O

> <OPENEYE_INCHI>
InChI=1S/C14H17N5O5S2/c1-6-4-25-12(18-9(6)13(22)23)7(3-20)16-11(21)10(19-24-2)8-5-26-14(15)17-8/h5,7,12,20H,1,3-4H2,2H3,(H2,15,17)(H,16,21)(H,22,23)/b19-10-/t7-,12+/m0/s1

> <OPENEYE_INCHIKEY>
BPQMPOALEVUCBW-FFHDXYSJSA-N

> <FORMULA>
C14H17N5O5S2

$$$$
