REMARK  10 active torsions:
REMARK  status: ('A' for Active; 'I' for Inactive)
REMARK    1  A    between atoms: O_1  and  C_4 
REMARK       I    between atoms: N_2  and  C_11 
REMARK    2  A    between atoms: N_2  and  CA_3 
REMARK    3  A    between atoms: CA_3  and  C_5 
REMARK    4  A    between atoms: CA_3  and  C_4 
REMARK    5  A    between atoms: C_10  and  CA_14 
REMARK    6  A    between atoms: C_10  and  OXT_23 
REMARK    7  A    between atoms: C_11  and  C_13 
REMARK    8  A    between atoms: C_13  and  C_16 
REMARK    9  A    between atoms: C_15  and  N_17 
REMARK   10  A    between atoms: N_18  and  O_24 
ROOT
HETATM    1  N   UNL     1       0.693   1.240  -0.161  1.00  0.00    -0.346 N 
HETATM    2  C   UNL     1       1.948   1.145   0.320  1.00  0.00     0.275 C 
HETATM    3  O   UNL     1       2.461   2.097   0.874  1.00  0.00    -0.266 OA
HETATM    4  H   UNL     1       0.321   0.520  -0.693  1.00  0.00     0.163 HD
ENDROOT
BRANCH   1   5
HETATM    5  CA  UNL     1      -0.111   2.432   0.121  1.00  0.00     0.143 C 
BRANCH   5   6
HETATM    6  C   UNL     1      -1.597   2.076   0.042  1.00  0.00     0.195 C 
HETATM    7  S   UNL     1      -1.956   1.351  -1.584  1.00  0.00    -0.135 SA
HETATM    8  C   UNL     1      -3.624   0.668  -1.315  1.00  0.00     0.116 C 
HETATM    9  C   UNL     1      -3.527  -0.259  -0.119  1.00  0.00    -0.023 C 
HETATM   10  C   UNL     1      -4.150  -1.434  -0.128  1.00  0.00     0.022 C 
HETATM   11  CA  UNL     1      -2.737   0.153   1.048  1.00  0.00     0.132 C 
HETATM   12  N   UNL     1      -1.922   1.132   1.099  1.00  0.00    -0.265 NA
BRANCH  11  13
HETATM   13  C   UNL     1      -2.905  -0.648   2.289  1.00  0.00     0.195 C 
HETATM   14  O   UNL     1      -3.737  -1.531   2.334  1.00  0.00    -0.645 OA
BRANCH  13  15
HETATM   15  OXT UNL     1      -2.134  -0.395   3.363  1.00  0.00    -0.772 OA
HETATM   16  HXT UNL     1      -2.280  -0.942   4.147  1.00  0.00     0.167 HD
ENDBRANCH  13  15
ENDBRANCH  11  13
ENDBRANCH   5   6
BRANCH   5  17
HETATM   17  C   UNL     1       0.209   3.518  -0.908  1.00  0.00     0.192 C 
BRANCH  17  18
HETATM   18  O   UNL     1      -0.204   3.082  -2.205  1.00  0.00    -0.399 OA
HETATM   19  H   UNL     1      -0.032   3.722  -2.909  1.00  0.00     0.209 HD
ENDBRANCH  17  18
ENDBRANCH   5  17
ENDBRANCH   1   5
BRANCH   2  20
HETATM   20  C   UNL     1       2.704  -0.122   0.172  1.00  0.00     0.180 C 
HETATM   21  N   UNL     1       3.970  -0.164   0.475  1.00  0.00    -0.126 NA
BRANCH  21  22
HETATM   22  O   UNL     1       4.597   0.965   1.057  1.00  0.00    -0.261 OA
HETATM   23  C   UNL     1       5.986   0.779   1.336  1.00  0.00     0.240 C 
ENDBRANCH  21  22
BRANCH  20  24
HETATM   24  C   UNL     1       2.020  -1.338  -0.318  1.00  0.00     0.102 A 
HETATM   25  C   UNL     1       2.632  -2.537  -0.375  1.00  0.00     0.087 A 
HETATM   26  S   UNL     1       1.485  -3.713  -1.011  1.00  0.00    -0.062 SA
HETATM   27  C   UNL     1       0.261  -2.454  -1.144  1.00  0.00     0.164 A 
HETATM   28  N   UNL     1       0.754  -1.326  -0.736  1.00  0.00    -0.222 NA
BRANCH  27  29
HETATM   29  N   UNL     1      -1.029  -2.639  -1.611  1.00  0.00    -0.378 N 
HETATM   30  H   UNL     1      -1.643  -1.889  -1.652  1.00  0.00     0.158 HD
HETATM   31  H   UNL     1      -1.319  -3.519  -1.899  1.00  0.00     0.158 HD
ENDBRANCH  27  29
ENDBRANCH  20  24
ENDBRANCH   2  20
TORSDOF 10
