H9O
  -OEChem-07282321083D

 24 25  0     1  0  0  0  0  0999 V2000
   -1.2030    3.0540    0.0220 O   0  0  0  0  0  0  0  0  0  0  0  0
   -0.7390    1.7650   -0.3530 B   0  0  0  0  0  0  0  0  0  0  0  0
    0.4560    1.4720   -1.0640 O   0  0  0  0  0  0  0  0  0  0  0  0
    0.5510    0.0590   -1.2380 C   0  0  1  0  0  0  0  0  0  0  0  0
    1.8100   -0.4450   -0.5810 C   0  0  0  0  0  0  0  0  0  0  0  0
    2.0810   -0.1290    0.8280 C   0  0  0  0  0  0  0  0  0  0  0  0
    3.0960   -0.5350    1.3580 O   0  0  0  0  0  0  0  0  0  0  0  0
    1.2030    0.6120    1.5330 O   0  0  0  0  0  0  0  0  0  0  0  0
    2.6770   -1.1770   -1.2770 C   0  0  0  0  0  0  0  0  0  0  0  0
   -0.6450   -0.6030   -0.6080 C   0  0  0  0  0  0  0  0  0  0  0  0
   -1.0280   -1.9240   -0.5000 C   0  0  0  0  0  0  0  0  0  0  0  0
   -2.2050   -2.2540    0.1480 C   0  0  0  0  0  0  0  0  0  0  0  0
   -3.0060   -1.2640    0.6910 C   0  0  0  0  0  0  0  0  0  0  0  0
   -2.6320    0.0610    0.5890 C   0  0  0  0  0  0  0  0  0  0  0  0
   -1.4460    0.3950   -0.0560 C   0  0  0  0  0  0  0  0  0  0  0  0
   -0.6230    3.7770   -0.2550 H   0  0  0  0  0  0  0  0  0  0  0  0
    0.5770   -0.1750   -2.3030 H   0  0  0  0  0  0  0  0  0  0  0  0
    1.4240    0.7940    2.4570 H   0  0  0  0  0  0  0  0  0  0  0  0
    3.5790   -1.5380   -0.8060 H   0  0  0  0  0  0  0  0  0  0  0  0
    2.4780   -1.4100   -2.3130 H   0  0  0  0  0  0  0  0  0  0  0  0
   -0.4080   -2.7020   -0.9220 H   0  0  0  0  0  0  0  0  0  0  0  0
   -2.5010   -3.2890    0.2300 H   0  0  0  0  0  0  0  0  0  0  0  0
   -3.9240   -1.5290    1.1950 H   0  0  0  0  0  0  0  0  0  0  0  0
   -3.2560    0.8340    1.0130 H   0  0  0  0  0  0  0  0  0  0  0  0
  1  2  1  0  0  0  0
 13 14  2  0  0  0  0
 14 15  1  0  0  0  0
  2 15  1  0  0  0  0
  2  3  1  0  0  0  0
 12 13  1  0  0  0  0
 10 15  2  0  0  0  0
  3  4  1  0  0  0  0
  4 10  1  0  0  0  0
 10 11  1  0  0  0  0
 11 12  2  0  0  0  0
  4  5  1  0  0  0  0
  6  7  2  0  0  0  0
  5  6  1  0  0  0  0
  5  9  2  0  0  0  0
  6  8  1  0  0  0  0
  1 16  1  0  0  0  0
  4 17  1  0  0  0  0
  8 18  1  0  0  0  0
  9 19  1  0  0  0  0
  9 20  1  0  0  0  0
 11 21  1  0  0  0  0
 12 22  1  0  0  0  0
 13 23  1  0  0  0  0
 14 24  1  0  0  0  0
M  END
> <OPENEYE_ISO_SMILES>
B1(c2ccccc2[C@@H](O1)C(=C)C(=O)O)O

> <OPENEYE_INCHI>
InChI=1S/C10H9BO4/c1-6(10(12)13)9-7-4-2-3-5-8(7)11(14)15-9/h2-5,9,14H,1H2,(H,12,13)/t9-/m0/s1

> <OPENEYE_INCHIKEY>
BRBGRVSFRVLGNY-VIFPVBQESA-N

> <FORMULA>
C10H9BO4

$$$$
