HD5
  -OEChem-07282321083D

 24 25  0     0  0  0  0  0  0999 V2000
    4.1600   -0.8260   -0.4280 C   0  0  0  0  0  0  0  0  0  0  0  0
    2.7140    1.2040   -0.1720 C   0  0  0  0  0  0  0  0  0  0  0  0
    1.4860    1.8070   -0.0470 C   0  0  0  0  0  0  0  0  0  0  0  0
    0.3200    1.0330   -0.0390 C   0  0  0  0  0  0  0  0  0  0  0  0
    2.8060   -0.1780   -0.2910 C   0  0  0  0  0  0  0  0  0  0  0  0
    1.6880   -0.9500   -0.2870 C   0  0  0  0  0  0  0  0  0  0  0  0
    0.4070   -0.3600   -0.1590 C   0  0  0  0  0  0  0  0  0  0  0  0
   -0.8510   -0.9820   -0.1340 C   0  0  0  0  0  0  0  0  0  0  0  0
   -1.8980   -0.1630   -0.0030 C   0  0  0  0  0  0  0  0  0  0  0  0
   -3.3960   -0.6300    0.0500 B   0  0  0  0  0  0  0  0  0  0  0  0
   -3.7130   -2.0110   -0.0440 O   0  0  0  0  0  0  0  0  0  0  0  0
   -4.4330    0.3290    0.1920 O   0  0  0  0  0  0  0  0  0  0  0  0
   -1.3690    1.5070    0.1030 S   0  0  0  0  0  0  0  0  0  0  0  0
    4.6840   -1.1500    0.9050 N   0  0  0  0  0  0  0  0  0  0  0  0
    4.0670   -1.7400   -1.0140 H   0  0  0  0  0  0  0  0  0  0  0  0
    4.8420   -0.1400   -0.9300 H   0  0  0  0  0  0  0  0  0  0  0  0
    3.6110    1.8060   -0.1810 H   0  0  0  0  0  0  0  0  0  0  0  0
    1.4200    2.8810    0.0460 H   0  0  0  0  0  0  0  0  0  0  0  0
    1.7770   -2.0230   -0.3810 H   0  0  0  0  0  0  0  0  0  0  0  0
   -0.9650   -2.0530   -0.2160 H   0  0  0  0  0  0  0  0  0  0  0  0
   -4.6600   -2.2010   -0.0020 H   0  0  0  0  0  0  0  0  0  0  0  0
   -5.3210   -0.0540    0.2150 H   0  0  0  0  0  0  0  0  0  0  0  0
    5.5920   -1.5860    0.8400 H   0  0  0  0  0  0  0  0  0  0  0  0
    4.7190   -0.3280    1.4900 H   0  0  0  0  0  0  0  0  0  0  0  0
 10 12  1  0  0  0  0
  2  3  2  0  0  0  0
  2  5  1  0  0  0  0
  3  4  1  0  0  0  0
  1  5  1  0  0  0  0
  1 14  1  0  0  0  0
  5  6  2  0  0  0  0
  4 13  1  0  0  0  0
  4  7  2  0  0  0  0
  9 13  1  0  0  0  0
  6  7  1  0  0  0  0
  7  8  1  0  0  0  0
  8  9  2  0  0  0  0
  9 10  1  0  0  0  0
 10 11  1  0  0  0  0
  1 15  1  0  0  0  0
  1 16  1  0  0  0  0
  2 17  1  0  0  0  0
  3 18  1  0  0  0  0
  6 19  1  0  0  0  0
  8 20  1  0  0  0  0
 11 21  1  0  0  0  0
 12 22  1  0  0  0  0
 14 23  1  0  0  0  0
 14 24  1  0  0  0  0
M  END
> <OPENEYE_ISO_SMILES>
B(c1cc2cc(ccc2s1)CN)(O)O

> <OPENEYE_INCHI>
InChI=1S/C9H10BNO2S/c11-5-6-1-2-8-7(3-6)4-9(14-8)10(12)13/h1-4,12-13H,5,11H2

> <OPENEYE_INCHIKEY>
AMRAXCBFZWIMEQ-UHFFFAOYSA-N

> <FORMULA>
C9H10BNO2S

$$$$
