HOQ
  -OEChem-07282321083D

 37 37  0     1  0  0  0  0  0999 V2000
   -2.8600    2.4140    5.3970 C   0  0  0  0  0  0  0  0  0  0  0  0
   -2.2110    2.7500    6.3780 O   0  0  0  0  0  0  0  0  0  0  0  0
   -4.1440    1.9730    5.4910 O   0  0  0  0  0  0  0  0  0  0  0  0
   -2.3610    2.4240    3.9510 C   0  0  1  0  0  0  0  0  0  0  0  0
   -2.7270    3.7280    3.1780 C   0  0  0  0  0  0  0  0  0  0  0  0
   -2.1220    3.6840    1.8790 O   0  0  0  0  0  0  0  0  0  0  0  0
   -0.8720    2.0930    3.9460 C   0  0  1  0  0  0  0  0  0  0  0  0
   -0.5930    0.4610    4.7120 S   0  0  0  0  0  0  0  0  0  0  0  0
    0.1910   -0.2370    3.2140 C   0  0  0  0  0  0  0  0  0  0  0  0
   -0.2370   -1.6930    3.0300 C   0  0  0  0  0  0  0  0  0  0  0  0
    1.7140   -0.1440    3.3900 C   0  0  0  0  0  0  0  0  0  0  0  0
   -0.3850    0.6750    2.1150 C   0  0  2  0  0  0  0  0  0  0  0  0
    0.3850    0.6050    0.8330 C   0  0  0  0  0  0  0  0  0  0  0  0
    0.9850    1.5400    0.3230 O   0  0  0  0  0  0  0  0  0  0  0  0
    0.3250   -0.6420    0.3060 O   0  0  0  0  0  0  0  0  0  0  0  0
   -0.3210    2.0610    2.5870 N   0  0  0  0  0  0  0  0  0  0  0  0
   -2.1130    4.9550    3.8700 C   0  0  0  0  0  0  0  0  0  0  0  0
   -4.2320    3.9650    3.0050 C   0  0  0  0  0  0  0  0  0  0  0  0
   -4.5140    1.9420    6.3990 H   0  0  0  0  0  0  0  0  0  0  0  0
   -2.9120    1.6110    3.4530 H   0  0  0  0  0  0  0  0  0  0  0  0
   -1.9870    2.7470    1.6790 H   0  0  0  0  0  0  0  0  0  0  0  0
   -0.3490    2.8520    4.5360 H   0  0  0  0  0  0  0  0  0  0  0  0
   -0.4390   -2.1590    3.9990 H   0  0  0  0  0  0  0  0  0  0  0  0
   -1.1460   -1.7520    2.4230 H   0  0  0  0  0  0  0  0  0  0  0  0
    0.5500   -2.2650    2.5300 H   0  0  0  0  0  0  0  0  0  0  0  0
    2.0610    0.8750    3.1960 H   0  0  0  0  0  0  0  0  0  0  0  0
    2.0000   -0.4160    4.4110 H   0  0  0  0  0  0  0  0  0  0  0  0
    2.2230   -0.8200    2.6970 H   0  0  0  0  0  0  0  0  0  0  0  0
   -1.4230    0.4100    1.8730 H   0  0  0  0  0  0  0  0  0  0  0  0
    0.8230   -0.7070   -0.5370 H   0  0  0  0  0  0  0  0  0  0  0  0
    0.6610    2.3370    2.6430 H   0  0  0  0  0  0  0  0  0  0  0  0
   -1.0310    4.8360    3.9910 H   0  0  0  0  0  0  0  0  0  0  0  0
   -2.2540    5.8550    3.2590 H   0  0  0  0  0  0  0  0  0  0  0  0
   -2.5550    5.1420    4.8530 H   0  0  0  0  0  0  0  0  0  0  0  0
   -4.7190    3.1420    2.4740 H   0  0  0  0  0  0  0  0  0  0  0  0
   -4.4110    4.8590    2.3960 H   0  0  0  0  0  0  0  0  0  0  0  0
   -4.7390    4.1050    3.9650 H   0  0  0  0  0  0  0  0  0  0  0  0
  1  2  2  0  0  0  0
  1  3  1  0  0  0  0
  1  4  1  0  0  0  0
  3 19  1  0  0  0  0
  4  5  1  0  0  0  0
  4  7  1  0  0  0  0
  4 20  1  0  0  0  0
  5  6  1  0  0  0  0
  5 17  1  0  0  0  0
  5 18  1  0  0  0  0
  6 21  1  0  0  0  0
  7  8  1  0  0  0  0
  7 16  1  0  0  0  0
  7 22  1  0  0  0  0
  8  9  1  0  0  0  0
  9 10  1  0  0  0  0
  9 11  1  0  0  0  0
  9 12  1  0  0  0  0
 10 23  1  0  0  0  0
 10 24  1  0  0  0  0
 10 25  1  0  0  0  0
 11 26  1  0  0  0  0
 11 27  1  0  0  0  0
 11 28  1  0  0  0  0
 12 13  1  0  0  0  0
 12 16  1  0  0  0  0
 12 29  1  0  0  0  0
 13 14  2  0  0  0  0
 13 15  1  0  0  0  0
 15 30  1  0  0  0  0
 16 31  1  0  0  0  0
 17 32  1  0  0  0  0
 17 33  1  0  0  0  0
 17 34  1  0  0  0  0
 18 35  1  0  0  0  0
 18 36  1  0  0  0  0
 18 37  1  0  0  0  0
M  END
> <OPENEYE_ISO_SMILES>
CC1([C@@H](N[C@H](S1)[C@@H](C(=O)O)C(C)(C)O)C(=O)O)C

> <OPENEYE_INCHI>
InChI=1S/C11H19NO5S/c1-10(2,17)5(8(13)14)7-12-6(9(15)16)11(3,4)18-7/h5-7,12,17H,1-4H3,(H,13,14)(H,15,16)/t5-,6-,7+/m0/s1

> <OPENEYE_INCHIKEY>
MAATUKZAHQWKEG-LYFYHCNISA-N

> <FORMULA>
C11H19NO5S

$$$$
