REMARK  7 active torsions:
REMARK  status: ('A' for Active; 'I' for Inactive)
REMARK    1  A    between atoms: C_1  and  O_3 
REMARK    2  A    between atoms: C_1  and  C_4 
REMARK    3  A    between atoms: C_4  and  C_5 
REMARK    4  A    between atoms: C_4  and  C_7 
REMARK    5  A    between atoms: C_5  and  O_6 
REMARK    6  A    between atoms: CA_12  and  C_13 
REMARK    7  A    between atoms: C_13  and  OXT_15 
ROOT
HETATM    1  C   UNL     1      -0.872   2.093   3.946  1.00  0.00     0.300 C 
HETATM    2  S   UNL     1      -0.593   0.461   4.712  1.00  0.00    -0.121 SA
HETATM    3  C   UNL     1       0.191  -0.237   3.214  1.00  0.00     0.044 C 
HETATM    4  C   UNL     1      -0.237  -1.693   3.030  1.00  0.00     0.029 C 
HETATM    5  C   UNL     1       1.714  -0.144   3.390  1.00  0.00     0.029 C 
HETATM    6  CA  UNL     1      -0.385   0.675   2.115  1.00  0.00     0.336 C 
HETATM    7  N   UNL     1      -0.321   2.061   2.587  1.00  0.00     0.115 N 
HETATM    8  H   UNL     1       0.661   2.337   2.643  1.00  0.00     0.318 HD
ENDROOT
BRANCH   1   9
HETATM    9  C   UNL     1      -2.361   2.424   3.951  1.00  0.00     0.160 C 
BRANCH   9  10
HETATM   10  C   UNL     1      -2.860   2.414   5.397  1.00  0.00     0.149 C 
HETATM   11  O   UNL     1      -2.211   2.750   6.378  1.00  0.00    -0.650 OA
BRANCH  10  12
HETATM   12  O   UNL     1      -4.144   1.973   5.491  1.00  0.00    -0.776 OA
HETATM   13  H   UNL     1      -4.514   1.942   6.399  1.00  0.00     0.167 HD
ENDBRANCH  10  12
ENDBRANCH   9  10
BRANCH   9  14
HETATM   14  C   UNL     1      -2.727   3.728   3.178  1.00  0.00     0.067 C 
HETATM   15  C   UNL     1      -2.113   4.955   3.870  1.00  0.00     0.046 C 
HETATM   16  C   UNL     1      -4.232   3.965   3.005  1.00  0.00     0.046 C 
BRANCH  14  17
HETATM   17  O   UNL     1      -2.122   3.684   1.879  1.00  0.00    -0.390 OA
HETATM   18  H   UNL     1      -1.987   2.747   1.679  1.00  0.00     0.210 HD
ENDBRANCH  14  17
ENDBRANCH   9  14
ENDBRANCH   1   9
BRANCH   6  19
HETATM   19  C   UNL     1       0.385   0.605   0.833  1.00  0.00     0.175 C 
HETATM   20  O   UNL     1       0.985   1.540   0.323  1.00  0.00    -0.648 OA
BRANCH  19  21
HETATM   21  OXT UNL     1       0.325  -0.642   0.306  1.00  0.00    -0.775 OA
HETATM   22  HXT UNL     1       0.823  -0.707  -0.537  1.00  0.00     0.167 HD
ENDBRANCH  19  21
ENDBRANCH   6  19
TORSDOF 7
