REMARK  5 active torsions:
REMARK  status: ('A' for Active; 'I' for Inactive)
REMARK    1  A    between atoms: B_1  and  O_2 
REMARK    2  A    between atoms: B_1  and  O_3 
REMARK    3  A    between atoms: B_1  and  C_4 
REMARK    4  A    between atoms: C_8  and  N_10 
REMARK       I    between atoms: N_10  and  C_11 
REMARK    5  A    between atoms: C_11  and  C_13 
ROOT
HETATM    1  C   UNL     1      -0.139  -0.002   4.105  1.00  0.00    -0.030 A 
HETATM    2  C   UNL     1      -1.531  -0.008   4.027  1.00  0.00     0.001 A 
HETATM    3  C   UNL     1      -2.154  -0.249   2.820  1.00  0.00     0.002 A 
HETATM    4  C   UNL     1      -1.402  -0.485   1.684  1.00  0.00     0.029 A 
HETATM    5  C   UNL     1      -0.015  -0.481   1.752  1.00  0.00     0.034 A 
HETATM    6  C   UNL     1       0.619  -0.234   2.960  1.00  0.00     0.030 A 
ENDROOT
BRANCH   5   7
HETATM    7  N   UNL     1       0.742  -0.720   0.599  1.00  0.00    -0.327 N 
HETATM    8  C   UNL     1       0.292  -0.305  -0.600  1.00  0.00     0.231 C 
HETATM    9  O   UNL     1      -0.718   0.361  -0.672  1.00  0.00    -0.272 OA
HETATM   10  H   UNL     1       1.591  -1.184   0.665  1.00  0.00     0.169 HD
BRANCH   8  11
HETATM   11  C   UNL     1       1.045  -0.669  -1.854  1.00  0.00     0.182 C 
HETATM   12  I   UNL     1       0.031   0.165  -3.571  1.00  0.00    -0.080 I 
ENDBRANCH   8  11
ENDBRANCH   5   7
BRANCH   1  13
HETATM   13  B   UNL     1       0.571   0.271   5.477  1.00  0.00     0.529 B 
BRANCH  13  14
HETATM   14  O   UNL     1      -0.203   0.513   6.642  1.00  0.00    -0.433 OA
HETATM   15  H   UNL     1       0.420   0.656   7.368  1.00  0.00     0.185 HD
ENDBRANCH  13  14
BRANCH  13  16
HETATM   16  O   UNL     1       1.989   0.276   5.554  1.00  0.00    -0.433 OA
HETATM   17  H   UNL     1       2.219   0.462   6.475  1.00  0.00     0.185 HD
ENDBRANCH  13  16
ENDBRANCH   1  13
TORSDOF 5
