IAP
  -OEChem-07282321083D

 23 23  0     0  0  0  0  0  0999 V2000
    0.5710    0.2710    5.4770 B   0  0  0  0  0  0  0  0  0  0  0  0
   -0.2030    0.5130    6.6420 O   0  0  0  0  0  0  0  0  0  0  0  0
    1.9890    0.2760    5.5540 O   0  0  0  0  0  0  0  0  0  0  0  0
   -0.1390   -0.0020    4.1050 C   0  0  0  0  0  0  0  0  0  0  0  0
   -1.5310   -0.0080    4.0270 C   0  0  0  0  0  0  0  0  0  0  0  0
   -2.1540   -0.2490    2.8200 C   0  0  0  0  0  0  0  0  0  0  0  0
   -1.4020   -0.4850    1.6840 C   0  0  0  0  0  0  0  0  0  0  0  0
   -0.0150   -0.4810    1.7520 C   0  0  0  0  0  0  0  0  0  0  0  0
    0.6190   -0.2340    2.9600 C   0  0  0  0  0  0  0  0  0  0  0  0
    0.7420   -0.7200    0.5990 N   0  0  0  0  0  0  0  0  0  0  0  0
    0.2920   -0.3050   -0.6000 C   0  0  0  0  0  0  0  0  0  0  0  0
   -0.7180    0.3610   -0.6720 O   0  0  0  0  0  0  0  0  0  0  0  0
    1.0450   -0.6690   -1.8540 C   0  0  0  0  0  0  0  0  0  0  0  0
    0.0310    0.1650   -3.5710 I   0  0  0  0  0  0  0  0  0  0  0  0
    0.4200    0.6560    7.3680 H   0  0  0  0  0  0  0  0  0  0  0  0
    2.2190    0.4620    6.4750 H   0  0  0  0  0  0  0  0  0  0  0  0
   -2.1210    0.1760    4.9130 H   0  0  0  0  0  0  0  0  0  0  0  0
   -3.2330   -0.2530    2.7630 H   0  0  0  0  0  0  0  0  0  0  0  0
   -1.8950   -0.6730    0.7420 H   0  0  0  0  0  0  0  0  0  0  0  0
    1.6970   -0.2300    3.0140 H   0  0  0  0  0  0  0  0  0  0  0  0
    1.5910   -1.1840    0.6650 H   0  0  0  0  0  0  0  0  0  0  0  0
    2.0570   -0.2680   -1.8000 H   0  0  0  0  0  0  0  0  0  0  0  0
    1.0880   -1.7540   -1.9500 H   0  0  0  0  0  0  0  0  0  0  0  0
  1  2  1  0  0  0  0
  1  3  1  0  0  0  0
  1  4  1  0  0  0  0
  2 15  1  0  0  0  0
  3 16  1  0  0  0  0
  4  5  2  0  0  0  0
  4  9  1  0  0  0  0
  5  6  1  0  0  0  0
  5 17  1  0  0  0  0
  6  7  2  0  0  0  0
  6 18  1  0  0  0  0
  7  8  1  0  0  0  0
  7 19  1  0  0  0  0
  8  9  2  0  0  0  0
  8 10  1  0  0  0  0
  9 20  1  0  0  0  0
 10 11  1  0  0  0  0
 10 21  1  0  0  0  0
 11 12  2  0  0  0  0
 11 13  1  0  0  0  0
 13 14  1  0  0  0  0
 13 22  1  0  0  0  0
 13 23  1  0  0  0  0
M  END
> <OPENEYE_ISO_SMILES>
B(c1cccc(c1)NC(=O)CI)(O)O

> <OPENEYE_INCHI>
InChI=1S/C8H9BINO3/c10-5-8(12)11-7-3-1-2-6(4-7)9(13)14/h1-4,13-14H,5H2,(H,11,12)

> <OPENEYE_INCHIKEY>
LMHXPDZPXBIIEX-UHFFFAOYSA-N

> <FORMULA>
C8H9BINO3

$$$$
