ID1
  -OEChem-07282321083D

 39 39  0     1  0  0  0  0  0999 V2000
   -2.0930    1.4520    1.2630 C   0  0  0  0  0  0  0  0  0  0  0  0
    0.1940   -0.8320   -0.8580 C   0  0  2  0  0  0  0  0  0  0  0  0
   -2.5890    1.4550   -0.1610 C   0  0  1  0  0  0  0  0  0  0  0  0
   -1.8670    0.3640   -0.9540 C   0  0  2  0  0  0  0  0  0  0  0  0
   -0.9520   -1.6000   -0.2380 C   0  0  0  0  0  0  0  0  0  0  0  0
   -1.5690    2.4390    1.7210 O   0  0  0  0  0  0  0  0  0  0  0  0
   -4.0950    1.1860   -0.1770 C   0  0  2  0  0  0  0  0  0  0  0  0
   -4.5650    1.1890   -1.5260 O   0  0  0  0  0  0  0  0  0  0  0  0
   -4.8160    2.2770    0.6170 C   0  0  0  0  0  0  0  0  0  0  0  0
   -2.0390   -0.9390   -0.3020 N   0  0  0  0  0  0  0  0  0  0  0  0
   -0.8270   -2.9490    0.3660 C   0  0  0  0  0  0  0  0  0  0  0  0
    0.2450   -3.5190    0.3620 O   0  0  0  0  0  0  0  0  0  0  0  0
   -1.9030   -3.5420    0.9180 O   0  0  0  0  0  0  0  0  0  0  0  0
    1.6620   -0.9030    0.2060 S   0  0  0  0  0  0  0  0  0  0  0  0
    2.9050    0.0040   -0.7550 C   0  0  0  0  0  0  0  0  0  0  0  0
    4.2580   -0.0760   -0.0430 C   0  0  0  0  0  0  0  0  0  0  0  0
    5.2620    0.6560   -0.8190 N   0  0  0  0  0  0  0  0  0  0  0  0
    5.8440    1.6920   -0.3080 C   0  0  0  0  0  0  0  0  0  0  0  0
    5.6250    2.0240    1.0020 N   0  0  0  0  0  0  0  0  0  0  0  0
   -0.3410    0.6170   -0.9510 C   0  0  0  0  0  0  0  0  0  0  0  0
   -2.2100    0.5690    1.8730 H   0  0  0  0  0  0  0  0  0  0  0  0
    0.4230   -1.2210   -1.8500 H   0  0  0  0  0  0  0  0  0  0  0  0
   -2.3880    2.4260   -0.6130 H   0  0  0  0  0  0  0  0  0  0  0  0
   -2.2430    0.3290   -1.9770 H   0  0  0  0  0  0  0  0  0  0  0  0
   -4.2950    0.2150    0.2760 H   0  0  0  0  0  0  0  0  0  0  0  0
   -4.4190    2.0230   -1.9920 H   0  0  0  0  0  0  0  0  0  0  0  0
   -4.6160    3.2480    0.1640 H   0  0  0  0  0  0  0  0  0  0  0  0
   -5.8890    2.0850    0.6060 H   0  0  0  0  0  0  0  0  0  0  0  0
   -4.4580    2.2750    1.6460 H   0  0  0  0  0  0  0  0  0  0  0  0
   -1.7720   -4.4210    1.2980 H   0  0  0  0  0  0  0  0  0  0  0  0
    2.9900   -0.4380   -1.7480 H   0  0  0  0  0  0  0  0  0  0  0  0
    2.6040    1.0480   -0.8460 H   0  0  0  0  0  0  0  0  0  0  0  0
    4.1730    0.3650    0.9500 H   0  0  0  0  0  0  0  0  0  0  0  0
    4.5590   -1.1200    0.0480 H   0  0  0  0  0  0  0  0  0  0  0  0
    6.5030    2.2950   -0.9160 H   0  0  0  0  0  0  0  0  0  0  0  0
    5.1860    1.3950    1.5950 H   0  0  0  0  0  0  0  0  0  0  0  0
    5.9090    2.8890    1.3380 H   0  0  0  0  0  0  0  0  0  0  0  0
   -0.0420    1.2040   -0.0820 H   0  0  0  0  0  0  0  0  0  0  0  0
   -0.0200    1.0970   -1.8760 H   0  0  0  0  0  0  0  0  0  0  0  0
 11 12  2  0  0  0  0
 11 13  1  0  0  0  0
  5 11  1  0  0  0  0
  1  3  1  0  0  0  0
  1  6  2  0  0  0  0
  5 10  2  0  0  0  0
  2  5  1  0  0  0  0
  4 10  1  0  0  0  0
  2 14  1  0  0  0  0
 14 15  1  0  0  0  0
  3  4  1  0  0  0  0
  3  7  1  0  0  0  0
  7  9  1  0  0  0  0
  2 20  1  0  0  0  0
  4 20  1  0  0  0  0
  7  8  1  0  0  0  0
 15 16  1  0  0  0  0
 16 17  1  0  0  0  0
 17 18  2  0  0  0  0
 18 19  1  0  0  0  0
  1 21  1  0  0  0  0
  2 22  1  0  0  0  0
  3 23  1  0  0  0  0
  4 24  1  0  0  0  0
  7 25  1  0  0  0  0
  8 26  1  0  0  0  0
  9 27  1  0  0  0  0
  9 28  1  0  0  0  0
  9 29  1  0  0  0  0
 13 30  1  0  0  0  0
 15 31  1  0  0  0  0
 15 32  1  0  0  0  0
 16 33  1  0  0  0  0
 16 34  1  0  0  0  0
 18 35  1  0  0  0  0
 19 36  1  0  0  0  0
 19 37  1  0  0  0  0
 20 38  1  0  0  0  0
 20 39  1  0  0  0  0
M  END
> <OPENEYE_ISO_SMILES>
C[C@H]([C@@H](C=O)[C@H]1C[C@H](C(=N1)C(=O)O)SCC/N=C\N)O

> <OPENEYE_INCHI>
InChI=1S/C12H19N3O4S/c1-7(17)8(5-16)9-4-10(11(15-9)12(18)19)20-3-2-14-6-13/h5-10,17H,2-4H2,1H3,(H2,13,14)(H,18,19)/t7-,8-,9-,10-/m1/s1

> <OPENEYE_INCHIKEY>
NIJGFQHESQFJAG-ZYUZMQFOSA-N

> <FORMULA>
C12H19N3O4S

$$$$
