IM2
  -OEChem-07282321083D

 39 39  0     1  0  0  0  0  0999 V2000
   -1.6700    1.7730    0.9780 C   0  0  0  0  0  0  0  0  0  0  0  0
   -0.0530   -0.6640   -0.8530 C   0  0  0  0  0  0  0  0  0  0  0  0
   -2.5810    1.6670   -0.2180 C   0  0  1  0  0  0  0  0  0  0  0  0
   -2.1830    0.4510   -1.0560 C   0  0  2  0  0  0  0  0  0  0  0  0
   -0.9870   -1.3620   -0.1800 C   0  0  0  0  0  0  0  0  0  0  0  0
   -0.9920    2.7600    1.1350 O   0  0  0  0  0  0  0  0  0  0  0  0
   -4.0270    1.5090    0.2560 C   0  0  2  0  0  0  0  0  0  0  0  0
   -4.1420    0.3250    1.0490 O   0  0  0  0  0  0  0  0  0  0  0  0
   -4.9530    1.4010   -0.9580 C   0  0  0  0  0  0  0  0  0  0  0  0
   -2.2600   -0.7740   -0.2500 N   0  0  0  0  0  0  0  0  0  0  0  0
   -0.7150   -2.5590    0.5230 C   0  0  0  0  0  0  0  0  0  0  0  0
    0.4310   -2.9600    0.6210 O   0  0  0  0  0  0  0  0  0  0  0  0
   -1.7250   -3.2570    1.0840 O   0  0  0  0  0  0  0  0  0  0  0  0
    1.6500   -1.0940   -0.9870 S   0  0  0  0  0  0  0  0  0  0  0  0
    2.3960    0.2920   -0.0930 C   0  0  0  0  0  0  0  0  0  0  0  0
    3.9200    0.1950   -0.1820 C   0  0  0  0  0  0  0  0  0  0  0  0
    4.5240    1.3170    0.5420 N   0  0  0  0  0  0  0  0  0  0  0  0
    5.8870    1.4410    0.6000 C   0  0  0  0  0  0  0  0  0  0  0  0
    6.6410    0.5670    0.0160 N   0  0  0  0  0  0  0  0  0  0  0  0
   -0.7060    0.5460   -1.4810 C   0  0  0  0  0  0  0  0  0  0  0  0
   -1.6260    0.9680    1.6960 H   0  0  0  0  0  0  0  0  0  0  0  0
   -2.4940    2.5700   -0.8220 H   0  0  0  0  0  0  0  0  0  0  0  0
   -2.8240    0.3700   -1.9340 H   0  0  0  0  0  0  0  0  0  0  0  0
   -4.3110    2.3750    0.8540 H   0  0  0  0  0  0  0  0  0  0  0  0
   -5.0340    0.1610    1.3830 H   0  0  0  0  0  0  0  0  0  0  0  0
   -4.6690    0.5350   -1.5550 H   0  0  0  0  0  0  0  0  0  0  0  0
   -5.9830    1.2880   -0.6200 H   0  0  0  0  0  0  0  0  0  0  0  0
   -4.8650    2.3040   -1.5620 H   0  0  0  0  0  0  0  0  0  0  0  0
   -3.0630   -1.1200    0.1700 H   0  0  0  0  0  0  0  0  0  0  0  0
   -1.4410   -4.0600    1.5420 H   0  0  0  0  0  0  0  0  0  0  0  0
    2.0650    1.2310   -0.5370 H   0  0  0  0  0  0  0  0  0  0  0  0
    2.0900    0.2570    0.9520 H   0  0  0  0  0  0  0  0  0  0  0  0
    4.2510   -0.7440    0.2620 H   0  0  0  0  0  0  0  0  0  0  0  0
    4.2270    0.2300   -1.2270 H   0  0  0  0  0  0  0  0  0  0  0  0
    3.9580    1.9720    0.9790 H   0  0  0  0  0  0  0  0  0  0  0  0
    6.3320    2.2680    1.1330 H   0  0  0  0  0  0  0  0  0  0  0  0
    7.6060    0.6540    0.0580 H   0  0  0  0  0  0  0  0  0  0  0  0
   -0.2630    1.4620   -1.0920 H   0  0  0  0  0  0  0  0  0  0  0  0
   -0.6130    0.5080   -2.5660 H   0  0  0  0  0  0  0  0  0  0  0  0
  1  3  1  0  0  0  0
  1  6  2  0  0  0  0
  1 21  1  0  0  0  0
  2  5  2  0  0  0  0
  2 14  1  0  0  0  0
  2 20  1  0  0  0  0
  3  4  1  0  0  0  0
  3  7  1  0  0  0  0
  3 22  1  0  0  0  0
  4 10  1  0  0  0  0
  4 20  1  0  0  0  0
  4 23  1  0  0  0  0
  5 10  1  0  0  0  0
  5 11  1  0  0  0  0
  7  8  1  0  0  0  0
  7  9  1  0  0  0  0
  7 24  1  0  0  0  0
  8 25  1  0  0  0  0
  9 26  1  0  0  0  0
  9 27  1  0  0  0  0
  9 28  1  0  0  0  0
 10 29  1  0  0  0  0
 11 12  2  0  0  0  0
 11 13  1  0  0  0  0
 13 30  1  0  0  0  0
 14 15  1  0  0  0  0
 15 16  1  0  0  0  0
 15 31  1  0  0  0  0
 15 32  1  0  0  0  0
 16 17  1  0  0  0  0
 16 33  1  0  0  0  0
 16 34  1  0  0  0  0
 17 18  1  0  0  0  0
 17 35  1  0  0  0  0
 18 19  2  0  0  0  0
 18 36  1  0  0  0  0
 19 37  1  0  0  0  0
 20 38  1  0  0  0  0
 20 39  1  0  0  0  0
M  END
> <OPENEYE_ISO_SMILES>
[H]/N=C/NCCSC1=C(N[C@H](C1)[C@H](C=O)[C@@H](C)O)C(=O)O

> <OPENEYE_INCHI>
InChI=1S/C12H19N3O4S/c1-7(17)8(5-16)9-4-10(11(15-9)12(18)19)20-3-2-14-6-13/h5-9,15,17H,2-4H2,1H3,(H2,13,14)(H,18,19)/t7-,8-,9-/m1/s1

> <OPENEYE_INCHIKEY>
UACUABDJLSUFFC-IWSPIJDZSA-N

> <FORMULA>
C12H19N3O4S

$$$$
