IPP
  -OEChem-07282321083D

 26 26  0     1  0  0  0  0  0999 V2000
   -0.4280   -0.2960   -4.7130 P   0  0  1  0  0  0  0  0  0  0  0  0
   -0.3810    0.4350   -6.1660 O   0  0  0  0  0  0  0  0  0  0  0  0
    0.2240   -1.6530   -4.7980 O   0  0  0  0  0  0  0  0  0  0  0  0
    0.6090    0.8330   -3.7710 C   0  0  0  0  0  0  0  0  0  0  0  0
    0.4220    0.4840   -2.3820 N   0  0  0  0  0  0  0  0  0  0  0  0
    1.2120   -0.4550   -1.7380 C   0  0  0  0  0  0  0  0  0  0  0  0
    2.1340   -1.0810   -2.2570 O   0  0  0  0  0  0  0  0  0  0  0  0
    0.8060   -0.6810   -0.2980 C   0  0  0  0  0  0  0  0  0  0  0  0
    0.3790   -2.1060   -0.0670 C   0  0  0  0  0  0  0  0  0  0  0  0
   -0.9540   -2.4560   -0.2360 C   0  0  0  0  0  0  0  0  0  0  0  0
   -1.3500   -3.7760   -0.0210 C   0  0  0  0  0  0  0  0  0  0  0  0
   -0.4090   -4.7330    0.3600 C   0  0  0  0  0  0  0  0  0  0  0  0
   -0.9990   -6.6990    0.6810 I   0  0  0  0  0  0  0  0  0  0  0  0
    0.9270   -4.3700    0.5270 C   0  0  0  0  0  0  0  0  0  0  0  0
    1.3230   -3.0500    0.3120 C   0  0  0  0  0  0  0  0  0  0  0  0
   -1.7910   -0.1820   -4.3690 H   0  0  0  0  0  0  0  0  0  0  0  0
   -1.2160    0.7910   -6.5400 H   0  0  0  0  0  0  0  0  0  0  0  0
    1.6600    0.7150   -4.0470 H   0  0  0  0  0  0  0  0  0  0  0  0
    0.3020    1.8720   -3.9140 H   0  0  0  0  0  0  0  0  0  0  0  0
   -0.3460    0.9230   -1.8840 H   0  0  0  0  0  0  0  0  0  0  0  0
    1.6620   -0.4260    0.3380 H   0  0  0  0  0  0  0  0  0  0  0  0
    0.0000    0.0000    0.0000 H   0  0  0  0  0  0  0  0  0  0  0  0
   -1.6940   -1.7170   -0.5300 H   0  0  0  0  0  0  0  0  0  0  0  0
   -2.3960   -4.0370   -0.1550 H   0  0  0  0  0  0  0  0  0  0  0  0
    1.6770   -5.1000    0.8240 H   0  0  0  0  0  0  0  0  0  0  0  0
    2.3670   -2.7760    0.4430 H   0  0  0  0  0  0  0  0  0  0  0  0
  1  2  1  0  0  0  0
  1  3  2  0  0  0  0
  1  4  1  0  0  0  0
  1 16  1  0  0  0  0
  2 17  1  0  0  0  0
  4  5  1  0  0  0  0
  4 18  1  0  0  0  0
  4 19  1  0  0  0  0
  5  6  1  0  0  0  0
  5 20  1  0  0  0  0
  6  7  2  0  0  0  0
  6  8  1  0  0  0  0
  8  9  1  0  0  0  0
  8 21  1  0  0  0  0
  8 22  1  0  0  0  0
  9 10  2  0  0  0  0
  9 15  1  0  0  0  0
 10 11  1  0  0  0  0
 10 23  1  0  0  0  0
 11 12  2  0  0  0  0
 11 24  1  0  0  0  0
 12 13  1  0  0  0  0
 12 14  1  0  0  0  0
 14 15  2  0  0  0  0
 14 25  1  0  0  0  0
 15 26  1  0  0  0  0
M  END
> <OPENEYE_ISO_SMILES>
c1cc(ccc1CC(=O)NC[P@H](=O)O)I

> <OPENEYE_INCHI>
InChI=1S/C9H11INO3P/c10-8-3-1-7(2-4-8)5-9(12)11-6-15(13)14/h1-4,15H,5-6H2,(H,11,12)(H,13,14)

> <OPENEYE_INCHIKEY>
NJMHQBSYSLWOQF-UHFFFAOYSA-N

> <FORMULA>
C9H11INO3P

$$$$
