REMARK  5 active torsions:
REMARK  status: ('A' for Active; 'I' for Inactive)
REMARK    1  A    between atoms: P_1  and  O_2 
REMARK    2  A    between atoms: P_1  and  C_4 
REMARK    3  A    between atoms: C_4  and  N_5 
REMARK       I    between atoms: N_5  and  C_6 
REMARK    4  A    between atoms: C_6  and  C_8 
REMARK    5  A    between atoms: C_8  and  C_9 
ROOT
HETATM    1  N   UNL     1       0.422   0.484  -2.382  1.00  0.00    -0.352 N 
HETATM    2  C   UNL     1       1.212  -0.455  -1.738  1.00  0.00     0.222 C 
HETATM    3  O   UNL     1       2.134  -1.081  -2.257  1.00  0.00    -0.273 OA
HETATM    4  H   UNL     1      -0.346   0.923  -1.884  1.00  0.00     0.163 HD
ENDROOT
BRANCH   2   5
HETATM    5  C   UNL     1       0.806  -0.681  -0.298  1.00  0.00     0.141 C 
BRANCH   5   6
HETATM    6  C   UNL     1       0.379  -2.106  -0.067  1.00  0.00    -0.049 A 
HETATM    7  C   UNL     1      -0.954  -2.456  -0.236  1.00  0.00     0.009 A 
HETATM    8  C   UNL     1      -1.350  -3.776  -0.021  1.00  0.00     0.019 A 
HETATM    9  C   UNL     1      -0.409  -4.733   0.360  1.00  0.00     0.006 A 
HETATM   10  I   UNL     1      -0.999  -6.699   0.681  1.00  0.00    -0.045 I 
HETATM   11  C   UNL     1       0.927  -4.370   0.527  1.00  0.00     0.019 A 
HETATM   12  C   UNL     1       1.323  -3.050   0.312  1.00  0.00     0.009 A 
ENDBRANCH   5   6
ENDBRANCH   2   5
BRANCH   1  13
HETATM   13  C   UNL     1       0.609   0.833  -3.771  1.00  0.00     0.213 C 
BRANCH  13  14
HETATM   14  P   UNL     1      -0.428  -0.296  -4.713  1.00  0.00     0.107 P 
HETATM   15  O   UNL     1       0.224  -1.653  -4.798  1.00  0.00    -0.675 OA
HETATM   16  H   UNL     1      -1.791  -0.182  -4.369  1.00  0.00     0.122 HD
BRANCH  14  17
HETATM   17  O   UNL     1      -0.381   0.435  -6.166  1.00  0.00    -0.350 OA
HETATM   18  H   UNL     1      -1.216   0.791  -6.540  1.00  0.00     0.217 HD
ENDBRANCH  14  17
ENDBRANCH  13  14
ENDBRANCH   1  13
TORSDOF 5
