ISS
  -OEChem-07282321083D

 22 21  0     0  0  0  0  0  0999 V2000
   -4.5290   -0.3070   -0.0000 C   0  0  0  0  0  0  0  0  0  0  0  0
   -5.5110    0.4090   -0.0000 O   0  0  0  0  0  0  0  0  0  0  0  0
   -3.2470    0.2620   -0.0000 C   0  0  0  0  0  0  0  0  0  0  0  0
   -2.1520   -0.5370   -0.0000 C   0  0  0  0  0  0  0  0  0  0  0  0
   -0.9060    0.0160   -0.0000 N   0  0  0  0  0  0  0  0  0  0  0  0
    0.2780   -0.8470   -0.0000 C   0  0  0  0  0  0  0  0  0  0  0  0
    1.5210    0.0050   -0.0000 C   0  0  0  0  0  0  0  0  0  0  0  0
    1.4270    1.2090    0.0000 O   0  0  0  0  0  0  0  0  0  0  0  0
    2.8800   -0.6450   -0.0000 C   0  0  0  0  0  0  0  0  0  0  0  0
    3.9630    0.4370    0.0000 C   0  0  0  0  0  0  0  0  0  0  0  0
    5.2520   -0.1800    0.0000 O   0  0  0  0  0  0  0  0  0  0  0  0
   -4.6430   -1.3810    0.0040 H   0  0  0  0  0  0  0  0  0  0  0  0
   -3.1330    1.3350    0.0000 H   0  0  0  0  0  0  0  0  0  0  0  0
   -2.2660   -1.6110   -0.0000 H   0  0  0  0  0  0  0  0  0  0  0  0
   -0.8030    0.9800    0.0000 H   0  0  0  0  0  0  0  0  0  0  0  0
    0.2690   -1.4770    0.8900 H   0  0  0  0  0  0  0  0  0  0  0  0
    0.2690   -1.4760   -0.8900 H   0  0  0  0  0  0  0  0  0  0  0  0
    2.9870   -1.2650    0.8900 H   0  0  0  0  0  0  0  0  0  0  0  0
    2.9870   -1.2650   -0.8900 H   0  0  0  0  0  0  0  0  0  0  0  0
    3.8560    1.0570   -0.8900 H   0  0  0  0  0  0  0  0  0  0  0  0
    3.8560    1.0570    0.8900 H   0  0  0  0  0  0  0  0  0  0  0  0
    5.9880    0.4470    0.0000 H   0  0  0  0  0  0  0  0  0  0  0  0
  1  2  2  0  0  0  0
  1  3  1  0  0  0  0
  3  4  2  0  0  0  0
  4  5  1  0  0  0  0
  5  6  1  0  0  0  0
  6  7  1  0  0  0  0
  7  8  2  0  0  0  0
  7  9  1  0  0  0  0
  9 10  1  0  0  0  0
 10 11  1  0  0  0  0
  1 12  1  0  0  0  0
  3 13  1  0  0  0  0
  4 14  1  0  0  0  0
  5 15  1  0  0  0  0
  6 16  1  0  0  0  0
  6 17  1  0  0  0  0
  9 18  1  0  0  0  0
  9 19  1  0  0  0  0
 10 20  1  0  0  0  0
 10 21  1  0  0  0  0
 11 22  1  0  0  0  0
M  END
> <OPENEYE_ISO_SMILES>
C(CO)C(=O)CN/C=C/C=O

> <OPENEYE_INCHI>
InChI=1S/C7H11NO3/c9-4-1-3-8-6-7(11)2-5-10/h1,3-4,8,10H,2,5-6H2/b3-1+

> <OPENEYE_INCHIKEY>
WWFGWBHKRFILGQ-HNQUOIGGSA-N

> <FORMULA>
C7H11NO3

$$$$
