REMARK  4 active torsions:
REMARK  status: ('A' for Active; 'I' for Inactive)
REMARK    1  A    between atoms: B_7  and  O_15 
REMARK    2  A    between atoms: C_9  and  C_10 
REMARK    3  A    between atoms: C_10  and  C_12 
REMARK    4  A    between atoms: C_12  and  O_13 
ROOT
HETATM    1  C   UNL     1       3.006   1.265  -0.692  1.00  0.00    -0.000 A 
HETATM    2  C   UNL     1       2.205   2.254  -0.149  1.00  0.00     0.001 A 
HETATM    3  C   UNL     1       1.027   1.924   0.500  1.00  0.00     0.010 A 
HETATM    4  C   UNL     1       0.644   0.603   0.608  1.00  0.00    -0.025 A 
HETATM    5  C   UNL     1       1.450  -0.396   0.061  1.00  0.00    -0.023 A 
HETATM    6  C   UNL     1       2.632  -0.061  -0.590  1.00  0.00     0.001 A 
HETATM    7  B   UNL     1       0.739  -1.765   0.353  1.00  0.00     0.533 B 
HETATM    8  O   UNL     1      -0.456  -1.472   1.064  1.00  0.00    -0.410 OA
HETATM    9  C   UNL     1      -0.551  -0.059   1.238  1.00  0.00     0.175 A 
ENDROOT
BRANCH   9  10
HETATM   10  C   UNL     1      -1.810   0.445   0.581  1.00  0.00     0.037 C 
HETATM   11  C   UNL     1      -2.677   1.177   1.277  1.00  0.00     0.029 C 
BRANCH  10  12
HETATM   12  C   UNL     1      -2.081   0.129  -0.828  1.00  0.00     0.174 C 
HETATM   13  O   UNL     1      -3.096   0.535  -1.358  1.00  0.00    -0.646 OA
BRANCH  12  14
HETATM   14  O   UNL     1      -1.203  -0.612  -1.533  1.00  0.00    -0.773 OA
HETATM   15  H   UNL     1      -1.424  -0.794  -2.457  1.00  0.00     0.167 HD
ENDBRANCH  12  14
ENDBRANCH  10  12
ENDBRANCH   9  10
BRANCH   7  16
HETATM   16  O   UNL     1       1.203  -3.054  -0.023  1.00  0.00    -0.433 OA
HETATM   17  H   UNL     1       0.621  -3.776   0.250  1.00  0.00     0.185 HD
ENDBRANCH   7  16
TORSDOF 4
