J4W
  -OEChem-07282321083D

 34 35  0     0  0  0  0  0  0999 V2000
   -1.4340   -0.5620    0.3190 O   0  0  0  0  0  0  0  0  0  0  0  0
   -1.8280    0.4720   -0.1850 C   0  0  0  0  0  0  0  0  0  0  0  0
   -3.1490    0.6850   -0.3400 O   0  0  0  0  0  0  0  0  0  0  0  0
   -4.0430   -0.3630    0.1170 C   0  0  0  0  0  0  0  0  0  0  0  0
   -3.8370   -0.5920    1.6160 C   0  0  0  0  0  0  0  0  0  0  0  0
   -5.4920    0.0550   -0.1400 C   0  0  0  0  0  0  0  0  0  0  0  0
   -3.7440   -1.6570   -0.6420 C   0  0  0  0  0  0  0  0  0  0  0  0
   -0.9430    1.4070   -0.5830 N   0  0  0  0  0  0  0  0  0  0  0  0
    0.4220    1.2320   -0.3300 C   0  0  0  0  0  0  0  0  0  0  0  0
    1.2210    2.3300   -0.0310 C   0  0  0  0  0  0  0  0  0  0  0  0
    2.5700    2.1630    0.2210 C   0  0  0  0  0  0  0  0  0  0  0  0
    3.1330    0.9040    0.1770 C   0  0  0  0  0  0  0  0  0  0  0  0
    0.9790   -0.0380   -0.3710 C   0  0  0  0  0  0  0  0  0  0  0  0
    2.3370   -0.2010   -0.1220 C   0  0  0  0  0  0  0  0  0  0  0  0
    3.2730   -1.4620   -0.0870 B   0  0  0  0  0  0  0  0  0  0  0  0
    2.8860   -2.8070   -0.3240 O   0  0  0  0  0  0  0  0  0  0  0  0
    4.5800   -1.0010    0.2260 O   0  0  0  0  0  0  0  0  0  0  0  0
    4.5390    0.4140    0.3990 C   0  0  0  0  0  0  0  0  0  0  0  0
   -4.0510    0.3290    2.1570 H   0  0  0  0  0  0  0  0  0  0  0  0
   -4.5090   -1.3790    1.9590 H   0  0  0  0  0  0  0  0  0  0  0  0
   -2.8050   -0.8900    1.7990 H   0  0  0  0  0  0  0  0  0  0  0  0
   -5.6400    0.2180   -1.2080 H   0  0  0  0  0  0  0  0  0  0  0  0
   -6.1640   -0.7320    0.2030 H   0  0  0  0  0  0  0  0  0  0  0  0
   -5.7060    0.9770    0.4010 H   0  0  0  0  0  0  0  0  0  0  0  0
   -2.7110   -1.9550   -0.4590 H   0  0  0  0  0  0  0  0  0  0  0  0
   -4.4150   -2.4440   -0.2990 H   0  0  0  0  0  0  0  0  0  0  0  0
   -3.8910   -1.4940   -1.7100 H   0  0  0  0  0  0  0  0  0  0  0  0
   -1.2530    2.2020   -1.0460 H   0  0  0  0  0  0  0  0  0  0  0  0
    0.7850    3.3180    0.0050 H   0  0  0  0  0  0  0  0  0  0  0  0
    3.1840    3.0210    0.4520 H   0  0  0  0  0  0  0  0  0  0  0  0
    0.3610   -0.8940   -0.5980 H   0  0  0  0  0  0  0  0  0  0  0  0
    3.6120   -3.4430   -0.2570 H   0  0  0  0  0  0  0  0  0  0  0  0
    5.2070    0.8860   -0.3210 H   0  0  0  0  0  0  0  0  0  0  0  0
    4.8580    0.6690    1.4100 H   0  0  0  0  0  0  0  0  0  0  0  0
  4  6  1  0  0  0  0
  4  5  1  0  0  0  0
  4  7  1  0  0  0  0
  3  4  1  0  0  0  0
  2  3  1  0  0  0  0
  1  2  2  0  0  0  0
  2  8  1  0  0  0  0
  8  9  1  0  0  0  0
  9 13  2  0  0  0  0
  9 10  1  0  0  0  0
 13 14  1  0  0  0  0
 10 11  2  0  0  0  0
 15 16  1  0  0  0  0
 14 15  1  0  0  0  0
 12 14  2  0  0  0  0
 15 17  1  0  0  0  0
 11 12  1  0  0  0  0
 12 18  1  0  0  0  0
 17 18  1  0  0  0  0
  5 19  1  0  0  0  0
  5 20  1  0  0  0  0
  5 21  1  0  0  0  0
  6 22  1  0  0  0  0
  6 23  1  0  0  0  0
  6 24  1  0  0  0  0
  7 25  1  0  0  0  0
  7 26  1  0  0  0  0
  7 27  1  0  0  0  0
  8 28  1  0  0  0  0
 10 29  1  0  0  0  0
 11 30  1  0  0  0  0
 13 31  1  0  0  0  0
 16 32  1  0  0  0  0
 18 33  1  0  0  0  0
 18 34  1  0  0  0  0
M  END
> <OPENEYE_ISO_SMILES>
B1(c2cc(ccc2CO1)NC(=O)OC(C)(C)C)O

> <OPENEYE_INCHI>
InChI=1S/C12H16BNO4/c1-12(2,3)18-11(15)14-9-5-4-8-7-17-13(16)10(8)6-9/h4-6,16H,7H2,1-3H3,(H,14,15)

> <OPENEYE_INCHIKEY>
PHTYIDJNPFQYPQ-UHFFFAOYSA-N

> <FORMULA>
C12H16BNO4

$$$$
