JW1
  -OEChem-07282321083D

 33 33  0     0  0  0  0  0  0999 V2000
   -0.6260    1.4960    0.3590 C   0  0  0  0  0  0  0  0  0  0  0  0
   -1.7940    2.1820    0.0870 C   0  0  0  0  0  0  0  0  0  0  0  0
   -2.9800    1.4950   -0.0830 C   0  0  0  0  0  0  0  0  0  0  0  0
   -3.0010    0.1050    0.0210 C   0  0  0  0  0  0  0  0  0  0  0  0
   -1.8240   -0.5870    0.2950 C   0  0  0  0  0  0  0  0  0  0  0  0
   -0.6370    0.1090    0.4580 C   0  0  0  0  0  0  0  0  0  0  0  0
   -4.3490   -0.6780   -0.1710 B   0  0  0  0  0  0  0  0  0  0  0  0
   -5.5480    0.0300   -0.4510 O   0  0  0  0  0  0  0  0  0  0  0  0
   -4.3690   -2.0930   -0.0650 O   0  0  0  0  0  0  0  0  0  0  0  0
    0.5480   -0.5820    0.7340 N   0  0  0  0  0  0  0  0  0  0  0  0
    1.7180   -0.1410    0.2310 C   0  0  0  0  0  0  0  0  0  0  0  0
    2.8440   -0.8570    0.4170 O   0  0  0  0  0  0  0  0  0  0  0  0
    4.0670   -0.3210   -0.1520 C   0  0  0  0  0  0  0  0  0  0  0  0
    5.2310   -1.2640    0.1600 C   0  0  0  0  0  0  0  0  0  0  0  0
    3.9090   -0.1910   -1.6680 C   0  0  0  0  0  0  0  0  0  0  0  0
    4.3510    1.0560    0.4510 C   0  0  0  0  0  0  0  0  0  0  0  0
    1.7580    0.9020   -0.3910 O   0  0  0  0  0  0  0  0  0  0  0  0
    0.2990    2.0380    0.4920 H   0  0  0  0  0  0  0  0  0  0  0  0
   -1.7800    3.2590    0.0060 H   0  0  0  0  0  0  0  0  0  0  0  0
   -3.8910    2.0350   -0.2960 H   0  0  0  0  0  0  0  0  0  0  0  0
   -1.8360   -1.6640    0.3770 H   0  0  0  0  0  0  0  0  0  0  0  0
   -6.3240   -0.5360   -0.5520 H   0  0  0  0  0  0  0  0  0  0  0  0
   -5.2420   -2.4860   -0.1990 H   0  0  0  0  0  0  0  0  0  0  0  0
    0.5280   -1.3790    1.2870 H   0  0  0  0  0  0  0  0  0  0  0  0
    5.3430   -1.3570    1.2400 H   0  0  0  0  0  0  0  0  0  0  0  0
    5.0290   -2.2460   -0.2690 H   0  0  0  0  0  0  0  0  0  0  0  0
    6.1490   -0.8620   -0.2670 H   0  0  0  0  0  0  0  0  0  0  0  0
    4.8280    0.2110   -2.0960 H   0  0  0  0  0  0  0  0  0  0  0  0
    3.7070   -1.1720   -2.0980 H   0  0  0  0  0  0  0  0  0  0  0  0
    3.0800    0.4810   -1.8910 H   0  0  0  0  0  0  0  0  0  0  0  0
    5.2690    1.4580    0.0230 H   0  0  0  0  0  0  0  0  0  0  0  0
    3.5220    1.7280    0.2280 H   0  0  0  0  0  0  0  0  0  0  0  0
    4.4630    0.9630    1.5310 H   0  0  0  0  0  0  0  0  0  0  0  0
 13 15  1  0  0  0  0
 13 16  1  0  0  0  0
 13 14  1  0  0  0  0
 12 13  1  0  0  0  0
 11 12  1  0  0  0  0
 11 17  2  0  0  0  0
 10 11  1  0  0  0  0
  6 10  1  0  0  0  0
  5  6  2  0  0  0  0
  1  6  1  0  0  0  0
  4  5  1  0  0  0  0
  1  2  2  0  0  0  0
  7  9  1  0  0  0  0
  4  7  1  0  0  0  0
  3  4  2  0  0  0  0
  2  3  1  0  0  0  0
  7  8  1  0  0  0  0
  1 18  1  0  0  0  0
  2 19  1  0  0  0  0
  3 20  1  0  0  0  0
  5 21  1  0  0  0  0
  8 22  1  0  0  0  0
  9 23  1  0  0  0  0
 10 24  1  0  0  0  0
 14 25  1  0  0  0  0
 14 26  1  0  0  0  0
 14 27  1  0  0  0  0
 15 28  1  0  0  0  0
 15 29  1  0  0  0  0
 15 30  1  0  0  0  0
 16 31  1  0  0  0  0
 16 32  1  0  0  0  0
 16 33  1  0  0  0  0
M  END
> <OPENEYE_ISO_SMILES>
B(c1cccc(c1)NC(=O)OC(C)(C)C)(O)O

> <OPENEYE_INCHI>
InChI=1S/C11H16BNO4/c1-11(2,3)17-10(14)13-9-6-4-5-8(7-9)12(15)16/h4-7,15-16H,1-3H3,(H,13,14)

> <OPENEYE_INCHIKEY>
CWLNHPXWZRALFS-UHFFFAOYSA-N

> <FORMULA>
C11H16BNO4

$$$$
