REMARK  6 active torsions:
REMARK  status: ('A' for Active; 'I' for Inactive)
REMARK       I    between atoms: C_2  and  N_12 
REMARK    1  A    between atoms: C_2  and  C_3 
REMARK    2  A    between atoms: C_5  and  B_6 
REMARK    3  A    between atoms: B_6  and  O_8 
REMARK    4  A    between atoms: B_6  and  O_7 
REMARK    5  A    between atoms: N_12  and  C_13 
REMARK    6  A    between atoms: C_13  and  C_14 
ROOT
HETATM    1  C   UNL     1       0.931   0.038  -0.003  1.00  0.00     0.031 A 
HETATM    2  C   UNL     1       2.217  -0.499   0.001  1.00  0.00     0.017 A 
HETATM    3  C   UNL     1       3.319   0.350   0.002  1.00  0.00    -0.031 A 
HETATM    4  C   UNL     1       3.132   1.732  -0.002  1.00  0.00     0.001 A 
HETATM    5  C   UNL     1       1.856   2.260  -0.007  1.00  0.00     0.001 A 
HETATM    6  C   UNL     1       0.757   1.425  -0.013  1.00  0.00     0.017 A 
ENDROOT
BRANCH   1   7
HETATM    7  C   UNL     1      -0.246  -0.856  -0.005  1.00  0.00     0.251 C 
HETATM    8  O   UNL     1      -0.093  -2.062  -0.002  1.00  0.00    -0.268 OA
HETATM    9  N   UNL     1      -1.489  -0.335  -0.015  1.00  0.00    -0.351 N 
HETATM   10  H   UNL     1      -1.611   0.627  -0.017  1.00  0.00     0.163 HD
BRANCH   9  11
HETATM   11  C   UNL     1      -2.655  -1.221  -0.022  1.00  0.00     0.187 C 
BRANCH  11  12
HETATM   12  C   UNL     1      -3.915  -0.394  -0.033  1.00  0.00     0.070 A 
HETATM   13  C   UNL     1      -4.561   0.041  -1.130  1.00  0.00     0.036 A 
HETATM   14  C   UNL     1      -5.685   0.771  -0.680  1.00  0.00     0.027 A 
HETATM   15  C   UNL     1      -5.654   0.746   0.664  1.00  0.00     0.142 A 
HETATM   16  O   UNL     1      -4.579   0.039   1.051  1.00  0.00    -0.325 OA
ENDBRANCH  11  12
ENDBRANCH   9  11
ENDBRANCH   1   7
BRANCH   3  17
HETATM   17  B   UNL     1       4.771  -0.247   0.007  1.00  0.00     0.529 B 
BRANCH  17  18
HETATM   18  O   UNL     1       5.896   0.620   0.008  1.00  0.00    -0.433 OA
HETATM   19  H   UNL     1       6.747   0.161   0.011  1.00  0.00     0.185 HD
ENDBRANCH  17  18
BRANCH  17  20
HETATM   20  O   UNL     1       4.960  -1.655   0.011  1.00  0.00    -0.433 OA
HETATM   21  H   UNL     1       5.888  -1.927   0.014  1.00  0.00     0.185 HD
ENDBRANCH  17  20
ENDBRANCH   3  17
TORSDOF 6
