JW3
  -OEChem-07282321083D

 30 31  0     0  0  0  0  0  0999 V2000
   -0.0930   -2.0620   -0.0020 O   0  0  0  0  0  0  0  0  0  0  0  0
   -0.2460   -0.8560   -0.0050 C   0  0  0  0  0  0  0  0  0  0  0  0
    0.9310    0.0380   -0.0030 C   0  0  0  0  0  0  0  0  0  0  0  0
    2.2170   -0.4990    0.0010 C   0  0  0  0  0  0  0  0  0  0  0  0
    3.3190    0.3500    0.0020 C   0  0  0  0  0  0  0  0  0  0  0  0
    4.7710   -0.2470    0.0070 B   0  0  0  0  0  0  0  0  0  0  0  0
    4.9600   -1.6550    0.0110 O   0  0  0  0  0  0  0  0  0  0  0  0
    5.8960    0.6200    0.0080 O   0  0  0  0  0  0  0  0  0  0  0  0
    3.1320    1.7320   -0.0020 C   0  0  0  0  0  0  0  0  0  0  0  0
    1.8560    2.2600   -0.0070 C   0  0  0  0  0  0  0  0  0  0  0  0
    0.7570    1.4250   -0.0130 C   0  0  0  0  0  0  0  0  0  0  0  0
   -1.4890   -0.3350   -0.0150 N   0  0  0  0  0  0  0  0  0  0  0  0
   -2.6550   -1.2210   -0.0220 C   0  0  0  0  0  0  0  0  0  0  0  0
   -3.9150   -0.3940   -0.0330 C   0  0  0  0  0  0  0  0  0  0  0  0
   -4.5790    0.0390    1.0510 O   0  0  0  0  0  0  0  0  0  0  0  0
   -5.6540    0.7460    0.6640 C   0  0  0  0  0  0  0  0  0  0  0  0
   -5.6850    0.7710   -0.6800 C   0  0  0  0  0  0  0  0  0  0  0  0
   -4.5610    0.0410   -1.1300 C   0  0  0  0  0  0  0  0  0  0  0  0
    2.3570   -1.5700    0.0050 H   0  0  0  0  0  0  0  0  0  0  0  0
    5.8880   -1.9270    0.0140 H   0  0  0  0  0  0  0  0  0  0  0  0
    6.7470    0.1610    0.0110 H   0  0  0  0  0  0  0  0  0  0  0  0
    3.9880    2.3910   -0.0010 H   0  0  0  0  0  0  0  0  0  0  0  0
    1.7170    3.3310   -0.0100 H   0  0  0  0  0  0  0  0  0  0  0  0
   -0.2380    1.8430   -0.0210 H   0  0  0  0  0  0  0  0  0  0  0  0
   -2.6270   -1.8520   -0.9110 H   0  0  0  0  0  0  0  0  0  0  0  0
   -6.3710    1.2150    1.3210 H   0  0  0  0  0  0  0  0  0  0  0  0
   -6.4240    1.2590   -1.2980 H   0  0  0  0  0  0  0  0  0  0  0  0
   -4.2790   -0.1400   -2.1570 H   0  0  0  0  0  0  0  0  0  0  0  0
   -1.6110    0.6270   -0.0170 H   0  0  0  0  0  0  0  0  0  0  0  0
   -2.6400   -1.8490    0.8690 H   0  0  0  0  0  0  0  0  0  0  0  0
 16 17  2  0  0  0  0
 17 18  1  0  0  0  0
 15 16  1  0  0  0  0
 14 18  2  0  0  0  0
 14 15  1  0  0  0  0
 13 14  1  0  0  0  0
 12 13  1  0  0  0  0
  2 12  1  0  0  0  0
  1  2  2  0  0  0  0
  2  3  1  0  0  0  0
  3  4  2  0  0  0  0
  3 11  1  0  0  0  0
  4  5  1  0  0  0  0
 10 11  2  0  0  0  0
  6  8  1  0  0  0  0
  5  6  1  0  0  0  0
  5  9  2  0  0  0  0
  9 10  1  0  0  0  0
  6  7  1  0  0  0  0
  4 19  1  0  0  0  0
  7 20  1  0  0  0  0
  8 21  1  0  0  0  0
  9 22  1  0  0  0  0
 10 23  1  0  0  0  0
 11 24  1  0  0  0  0
 13 25  1  0  0  0  0
 16 26  1  0  0  0  0
 17 27  1  0  0  0  0
 18 28  1  0  0  0  0
 12 29  1  0  0  0  0
 13 30  1  0  0  0  0
M  END
> <OPENEYE_ISO_SMILES>
B(c1cccc(c1)C(=O)NCc2ccco2)(O)O

> <OPENEYE_INCHI>
InChI=1S/C12H12BNO4/c15-12(14-8-11-5-2-6-18-11)9-3-1-4-10(7-9)13(16)17/h1-7,16-17H,8H2,(H,14,15)

> <OPENEYE_INCHIKEY>
BYRIHRGFMYXTLC-UHFFFAOYSA-N

> <FORMULA>
C12H12BNO4

$$$$
