JW8
  -OEChem-07282321083D

 28 29  0     0  0  0  0  0  0999 V2000
   -0.1500   -0.5760    0.0030 C   0  0  0  0  0  0  0  0  0  0  0  0
    0.5240   -0.4210    1.2020 C   0  0  0  0  0  0  0  0  0  0  0  0
    1.8720   -0.1280    1.2060 C   0  0  0  0  0  0  0  0  0  0  0  0
    2.5560    0.0110   -0.0000 C   0  0  0  0  0  0  0  0  0  0  0  0
    1.8730   -0.1460   -1.2050 C   0  0  0  0  0  0  0  0  0  0  0  0
    0.5250   -0.4380   -1.1970 C   0  0  0  0  0  0  0  0  0  0  0  0
    4.0900    0.3450   -0.0020 B   0  0  0  0  0  0  0  0  0  0  0  0
    4.7830    0.5050    1.2270 O   0  0  0  0  0  0  0  0  0  0  0  0
    4.7850    0.4860   -1.2320 O   0  0  0  0  0  0  0  0  0  0  0  0
   -1.8700   -0.9560    0.0050 S   0  0  0  0  0  0  0  0  0  0  0  0
   -2.6900    0.4820   -0.0020 N   0  0  0  0  0  0  0  0  0  0  0  0
   -3.1970    1.3890    1.0470 C   0  0  0  0  0  0  0  0  0  0  0  0
   -3.1030    2.4990   -0.0150 C   0  0  0  0  0  0  0  0  0  0  0  0
   -3.2030    1.3760   -1.0590 C   0  0  0  0  0  0  0  0  0  0  0  0
   -2.1440   -1.5810   -1.2420 O   0  0  0  0  0  0  0  0  0  0  0  0
   -2.1440   -1.5690    1.2580 O   0  0  0  0  0  0  0  0  0  0  0  0
   -0.0070   -0.5300    2.1360 H   0  0  0  0  0  0  0  0  0  0  0  0
    2.3960   -0.0070    2.1430 H   0  0  0  0  0  0  0  0  0  0  0  0
    2.3980   -0.0390   -2.1430 H   0  0  0  0  0  0  0  0  0  0  0  0
   -0.0060   -0.5610   -2.1300 H   0  0  0  0  0  0  0  0  0  0  0  0
    5.7230    0.7090    1.1250 H   0  0  0  0  0  0  0  0  0  0  0  0
    5.7240    0.6920   -1.1320 H   0  0  0  0  0  0  0  0  0  0  0  0
   -4.2160    1.1660    1.3610 H   0  0  0  0  0  0  0  0  0  0  0  0
   -2.5120    1.5230    1.8840 H   0  0  0  0  0  0  0  0  0  0  0  0
   -3.9560    3.1790   -0.0160 H   0  0  0  0  0  0  0  0  0  0  0  0
   -2.1450    3.0180   -0.0250 H   0  0  0  0  0  0  0  0  0  0  0  0
   -2.5200    1.4970   -1.9000 H   0  0  0  0  0  0  0  0  0  0  0  0
   -4.2240    1.1510   -1.3670 H   0  0  0  0  0  0  0  0  0  0  0  0
 12 13  1  0  0  0  0
 11 12  1  0  0  0  0
 10 15  2  0  0  0  0
 13 14  1  0  0  0  0
 10 11  1  0  0  0  0
 11 14  1  0  0  0  0
  5  6  2  0  0  0  0
  1  6  1  0  0  0  0
  1 10  1  0  0  0  0
 10 16  2  0  0  0  0
  4  5  1  0  0  0  0
  1  2  2  0  0  0  0
  7  9  1  0  0  0  0
  4  7  1  0  0  0  0
  3  4  2  0  0  0  0
  2  3  1  0  0  0  0
  7  8  1  0  0  0  0
  2 17  1  0  0  0  0
  3 18  1  0  0  0  0
  5 19  1  0  0  0  0
  6 20  1  0  0  0  0
  8 21  1  0  0  0  0
  9 22  1  0  0  0  0
 12 23  1  0  0  0  0
 12 24  1  0  0  0  0
 13 25  1  0  0  0  0
 13 26  1  0  0  0  0
 14 27  1  0  0  0  0
 14 28  1  0  0  0  0
M  END
> <OPENEYE_ISO_SMILES>
B(c1ccc(cc1)S(=O)(=O)N2CCC2)(O)O

> <OPENEYE_INCHI>
InChI=1S/C9H12BNO4S/c12-10(13)8-2-4-9(5-3-8)16(14,15)11-6-1-7-11/h2-5,12-13H,1,6-7H2

> <OPENEYE_INCHIKEY>
IOGLONDWRZETTA-UHFFFAOYSA-N

> <FORMULA>
C9H12BNO4S

$$$$
