REMARK  6 active torsions:
REMARK  status: ('A' for Active; 'I' for Inactive)
REMARK    1  A    between atoms: O_1  and  S_2 
REMARK    2  A    between atoms: S_2  and  O_5 
REMARK    3  A    between atoms: O_5  and  N_6 
REMARK    4  A    between atoms: N_6  and  C_7 
REMARK    5  A    between atoms: C_12  and  C_13 
REMARK       I    between atoms: C_13  and  N_15 
REMARK    6  A    between atoms: N_16  and  C_17 
ROOT
HETATM    1  C   UNL     1      -0.230  -0.326   0.093  1.00  0.00     0.125 C 
HETATM    2  C   UNL     1       0.612  -1.255  -0.785  1.00  0.00     0.152 C 
HETATM    3  C   UNL     1       0.377   1.045   0.131  1.00  0.00     0.001 C 
HETATM    4  C   UNL     1       1.605   1.314  -0.178  1.00  0.00    -0.054 C 
HETATM    5  C   UNL     1       2.070   2.743  -0.069  1.00  0.00     0.046 C 
HETATM    6  C   UNL     1       2.593   0.280  -0.640  1.00  0.00     0.207 C 
HETATM    7  N   UNL     1       2.027  -1.055  -0.427  1.00  0.00    -0.340 N 
ENDROOT
BRANCH   1   8
HETATM    8  N   UNL     1      -1.590  -0.239  -0.457  1.00  0.00    -0.177 NA
HETATM    9  H   UNL     1      -1.650   0.479  -1.163  1.00  0.00     0.156 HD
BRANCH   8  10
HETATM   10  O   UNL     1      -2.571  -0.014   0.605  1.00  0.00    -0.167 OA
BRANCH  10  11
HETATM   11  S   UNL     1      -4.007   0.086   0.110  1.00  0.00     0.257 S 
HETATM   12  O   UNL     1      -4.787   0.500   1.223  1.00  0.00    -0.578 OA
HETATM   13  O   UNL     1      -3.960   0.804  -1.115  1.00  0.00    -0.578 OA
BRANCH  11  14
HETATM   14  O   UNL     1      -4.464  -1.324  -0.235  1.00  0.00    -0.273 OA
HETATM   15  H   UNL     1      -5.373  -1.373  -0.563  1.00  0.00     0.234 HD
ENDBRANCH  11  14
ENDBRANCH  10  11
ENDBRANCH   8  10
ENDBRANCH   1   8
BRANCH   7  16
HETATM   16  C   UNL     1       2.771  -2.060   0.077  1.00  0.00     0.351 C 
HETATM   17  O   UNL     1       3.913  -1.853   0.428  1.00  0.00    -0.284 OA
ENDBRANCH   7  16
BRANCH   6  18
HETATM   18  C   UNL     1       3.871   0.418   0.147  1.00  0.00     0.242 C 
HETATM   19  N   UNL     1       5.010   0.781  -0.475  1.00  0.00    -0.368 N 
HETATM   20  H   UNL     1       5.832   0.870   0.031  1.00  0.00     0.159 HD
HETATM   21  H   UNL     1       5.007   0.954  -1.430  1.00  0.00     0.159 HD
HETATM   22  O   UNL     1       3.875   0.202   1.341  1.00  0.00    -0.271 OA
ENDBRANCH   6  18
TORSDOF 6
