JXG
  -OEChem-07282321083D

 31 31  0     1  0  0  0  0  0999 V2000
   -4.4640   -1.3240   -0.2350 O   0  0  0  0  0  0  0  0  0  0  0  0
   -4.0070    0.0860    0.1100 S   0  0  0  0  0  0  0  0  0  0  0  0
   -3.9600    0.8040   -1.1150 O   0  0  0  0  0  0  0  0  0  0  0  0
   -4.7870    0.5000    1.2230 O   0  0  0  0  0  0  0  0  0  0  0  0
   -2.5710   -0.0140    0.6050 O   0  0  0  0  0  0  0  0  0  0  0  0
   -1.5900   -0.2390   -0.4570 N   0  0  0  0  0  0  0  0  0  0  0  0
   -0.2300   -0.3260    0.0930 C   0  0  1  0  0  0  0  0  0  0  0  0
    0.6120   -1.2550   -0.7850 C   0  0  0  0  0  0  0  0  0  0  0  0
    0.3770    1.0450    0.1310 C   0  0  0  0  0  0  0  0  0  0  0  0
    1.6050    1.3140   -0.1780 C   0  0  0  0  0  0  0  0  0  0  0  0
    2.0700    2.7430   -0.0690 C   0  0  0  0  0  0  0  0  0  0  0  0
    2.5930    0.2800   -0.6400 C   0  0  1  0  0  0  0  0  0  0  0  0
    3.8710    0.4180    0.1470 C   0  0  0  0  0  0  0  0  0  0  0  0
    3.8750    0.2020    1.3410 O   0  0  0  0  0  0  0  0  0  0  0  0
    5.0100    0.7810   -0.4750 N   0  0  0  0  0  0  0  0  0  0  0  0
    2.0270   -1.0550   -0.4270 N   0  0  0  0  0  0  0  0  0  0  0  0
    2.7710   -2.0600    0.0770 C   0  0  0  0  0  0  0  0  0  0  0  0
    3.9130   -1.8530    0.4280 O   0  0  0  0  0  0  0  0  0  0  0  0
   -1.6500    0.4790   -1.1630 H   0  0  0  0  0  0  0  0  0  0  0  0
   -0.2750   -0.7280    1.1050 H   0  0  0  0  0  0  0  0  0  0  0  0
    0.3290   -2.2910   -0.6040 H   0  0  0  0  0  0  0  0  0  0  0  0
    0.4590   -1.0080   -1.8360 H   0  0  0  0  0  0  0  0  0  0  0  0
   -0.2550    1.8660    0.4380 H   0  0  0  0  0  0  0  0  0  0  0  0
    1.2450    3.3680    0.2760 H   0  0  0  0  0  0  0  0  0  0  0  0
    2.8940    2.8040    0.6420 H   0  0  0  0  0  0  0  0  0  0  0  0
    2.4060    3.0920   -1.0450 H   0  0  0  0  0  0  0  0  0  0  0  0
    2.8010    0.4220   -1.7000 H   0  0  0  0  0  0  0  0  0  0  0  0
    5.8320    0.8700    0.0310 H   0  0  0  0  0  0  0  0  0  0  0  0
    5.0070    0.9540   -1.4300 H   0  0  0  0  0  0  0  0  0  0  0  0
    2.3490   -3.0500    0.1690 H   0  0  0  0  0  0  0  0  0  0  0  0
   -5.3730   -1.3730   -0.5630 H   0  0  0  0  0  0  0  0  0  0  0  0
 13 15  1  0  0  0  0
 13 14  2  0  0  0  0
 12 13  1  0  0  0  0
 10 11  1  0  0  0  0
 10 12  1  0  0  0  0
 12 16  1  0  0  0  0
 17 18  2  0  0  0  0
  9 10  2  0  0  0  0
 16 17  1  0  0  0  0
  8 16  1  0  0  0  0
  7  9  1  0  0  0  0
  7  8  1  0  0  0  0
  6  7  1  0  0  0  0
  2  4  2  0  0  0  0
  2  5  1  0  0  0  0
  5  6  1  0  0  0  0
  2  3  2  0  0  0  0
  1  2  1  0  0  0  0
  6 19  1  0  0  0  0
  7 20  1  0  0  0  0
  8 21  1  0  0  0  0
  8 22  1  0  0  0  0
  9 23  1  0  0  0  0
 11 24  1  0  0  0  0
 11 25  1  0  0  0  0
 11 26  1  0  0  0  0
 12 27  1  0  0  0  0
 15 28  1  0  0  0  0
 15 29  1  0  0  0  0
 17 30  1  0  0  0  0
  1 31  1  0  0  0  0
M  END
> <OPENEYE_ISO_SMILES>
CC1=C[C@H](CN([C@@H]1C(=O)N)C=O)NOS(=O)(=O)O

> <OPENEYE_INCHI>
InChI=1S/C8H13N3O6S/c1-5-2-6(10-17-18(14,15)16)3-11(4-12)7(5)8(9)13/h2,4,6-7,10H,3H2,1H3,(H2,9,13)(H,14,15,16)/t6-,7+/m1/s1

> <OPENEYE_INCHIKEY>
DDVLLOCREWHCBP-RQJHMYQMSA-N

> <FORMULA>
C8H13N3O6S

$$$$
