KAS
  -OEChem-07282321083D

 33 34  0     0  0  0  0  0  0999 V2000
   -7.2670   -0.3170   -1.0230 O   0  0  0  0  0  0  0  0  0  0  0  0
   -6.0990    0.3410   -0.8920 C   0  0  0  0  0  0  0  0  0  0  0  0
   -5.9920    1.4770   -1.3090 O   0  0  0  0  0  0  0  0  0  0  0  0
   -4.9490   -0.3190   -0.2420 C   0  0  0  0  0  0  0  0  0  0  0  0
   -3.7400    0.3620   -0.1000 C   0  0  0  0  0  0  0  0  0  0  0  0
   -2.6620   -0.2670    0.5140 C   0  0  0  0  0  0  0  0  0  0  0  0
   -2.7940   -1.5730    0.9830 C   0  0  0  0  0  0  0  0  0  0  0  0
   -3.9930   -2.2440    0.8400 C   0  0  0  0  0  0  0  0  0  0  0  0
   -5.0700   -1.6250    0.2380 C   0  0  0  0  0  0  0  0  0  0  0  0
   -1.3720    0.4520    0.6680 C   0  0  0  0  0  0  0  0  0  0  0  0
   -0.2310   -0.0270    1.2440 C   0  0  0  0  0  0  0  0  0  0  0  0
    0.6770    0.9710    1.1590 N   0  0  0  0  0  0  0  0  0  0  0  0
    0.1260    1.9760    0.5760 N   0  0  0  0  0  0  0  0  0  0  0  0
   -1.0910    1.7040    0.2640 N   0  0  0  0  0  0  0  0  0  0  0  0
    2.0570    0.9160    1.6480 C   0  0  0  0  0  0  0  0  0  0  0  0
    2.9950    0.3790    0.5100 B   0  0  0  0  0  0  0  0  0  0  0  0
    4.3880    0.2360    0.7460 O   0  0  0  0  0  0  0  0  0  0  0  0
    2.4510    0.0360   -0.7560 O   0  0  0  0  0  0  0  0  0  0  0  0
    5.2130   -0.3250   -0.5180 P   0  0  0  0  0  0  0  0  0  0  0  0
    4.6480   -1.7770   -0.9240 O   0  0  0  0  0  0  0  0  0  0  0  0
    5.0560    0.6030   -1.6600 O   0  0  0  0  0  0  0  0  0  0  0  0
    6.7710   -0.4440   -0.1320 O   0  0  0  0  0  0  0  0  0  0  0  0
   -7.9910    0.1570   -1.4560 H   0  0  0  0  0  0  0  0  0  0  0  0
   -3.6420    1.3740   -0.4650 H   0  0  0  0  0  0  0  0  0  0  0  0
   -1.9570   -2.0610    1.4590 H   0  0  0  0  0  0  0  0  0  0  0  0
   -4.0890   -3.2560    1.2050 H   0  0  0  0  0  0  0  0  0  0  0  0
   -6.0060   -2.1530    0.1330 H   0  0  0  0  0  0  0  0  0  0  0  0
   -0.0840   -1.0040    1.6790 H   0  0  0  0  0  0  0  0  0  0  0  0
    2.3780    1.9150    1.9430 H   0  0  0  0  0  0  0  0  0  0  0  0
    2.1110    0.2490    2.5090 H   0  0  0  0  0  0  0  0  0  0  0  0
    3.1060   -0.2850   -1.3920 H   0  0  0  0  0  0  0  0  0  0  0  0
    4.7190   -2.4380   -0.2220 H   0  0  0  0  0  0  0  0  0  0  0  0
    7.3300   -0.7770   -0.8480 H   0  0  0  0  0  0  0  0  0  0  0  0
  2  3  2  0  0  0  0
 13 14  2  0  0  0  0
 10 14  1  0  0  0  0
 12 13  1  0  0  0  0
  1  2  1  0  0  0  0
  2  4  1  0  0  0  0
  4  5  2  0  0  0  0
  5  6  1  0  0  0  0
  4  9  1  0  0  0  0
 12 15  1  0  0  0  0
 11 12  1  0  0  0  0
  6 10  1  0  0  0  0
 10 11  2  0  0  0  0
 15 16  1  0  0  0  0
  6  7  2  0  0  0  0
 16 18  1  0  0  0  0
 16 17  1  0  0  0  0
  8  9  2  0  0  0  0
  7  8  1  0  0  0  0
 17 19  1  0  0  0  0
 19 21  2  0  0  0  0
 19 22  1  0  0  0  0
 19 20  1  0  0  0  0
  1 23  1  0  0  0  0
  5 24  1  0  0  0  0
  7 25  1  0  0  0  0
  8 26  1  0  0  0  0
  9 27  1  0  0  0  0
 11 28  1  0  0  0  0
 15 29  1  0  0  0  0
 15 30  1  0  0  0  0
 18 31  1  0  0  0  0
 20 32  1  0  0  0  0
 22 33  1  0  0  0  0
M  END
> <OPENEYE_ISO_SMILES>
B(Cn1cc(nn1)c2cccc(c2)C(=O)O)(O)OP(=O)(O)O

> <OPENEYE_INCHI>
InChI=1S/C10H11BN3O7P/c15-10(16)8-3-1-2-7(4-8)9-5-14(13-12-9)6-11(17)21-22(18,19)20/h1-5,17H,6H2,(H,15,16)(H2,18,19,20)

> <OPENEYE_INCHIKEY>
HJSPORKXLABRNX-UHFFFAOYSA-N

> <FORMULA>
C10H11BN3O7P

$$$$
