REMARK  8 active torsions:
REMARK  status: ('A' for Active; 'I' for Inactive)
REMARK    1  A    between atoms: CA_5  and  C_6 
REMARK    2  A    between atoms: C_6  and  O_7 
REMARK    3  A    between atoms: C_10  and  CA_11 
REMARK    4  A    between atoms: CA_11  and  C_12 
REMARK    5  A    between atoms: CA_11  and  N_15 
REMARK    6  A    between atoms: C_12  and  OXT_14 
REMARK       I    between atoms: N_15  and  C_16 
REMARK    7  A    between atoms: C_16  and  C_18 
REMARK    8  A    between atoms: C_18  and  C_19 
ROOT
HETATM    1  CA  UNL     1      -0.691   0.156   0.241  1.00  0.00     0.215 C 
ENDROOT
BRANCH   1   2
HETATM    2  C   UNL     1       0.028   0.583   1.522  1.00  0.00     0.177 C 
HETATM    3  S   UNL     1       1.812   0.255   1.368  1.00  0.00    -0.137 SA
HETATM    4  C   UNL     1       2.337   0.811   3.018  1.00  0.00     0.112 C 
HETATM    5  C   UNL     1       1.444   0.213   4.064  1.00  0.00    -0.041 C 
HETATM    6  C   UNL     1       2.000   0.096   5.460  1.00  0.00     0.047 C 
HETATM    7  CA  UNL     1       0.216  -0.212   3.868  1.00  0.00     0.106 C 
HETATM    8  N   UNL     1      -0.470  -0.201   2.659  1.00  0.00    -0.368 N 
HETATM    9  H   UNL     1      -1.287  -0.716   2.566  1.00  0.00     0.161 HD
BRANCH   7  10
HETATM   10  C   UNL     1      -0.498  -0.751   5.039  1.00  0.00     0.193 C 
HETATM   11  OXT UNL     1       0.050  -0.787   6.123  1.00  0.00    -0.645 OA
BRANCH  10  12
HETATM   12  O   UNL     1      -1.760  -1.205   4.908  1.00  0.00    -0.772 OA
HETATM   13  H   UNL     1      -2.229  -1.559   5.676  1.00  0.00     0.167 HD
ENDBRANCH  10  12
ENDBRANCH   7  10
ENDBRANCH   1   2
BRANCH   1  14
HETATM   14  C   UNL     1      -2.172   0.390   0.395  1.00  0.00     0.166 C 
HETATM   15  O   UNL     1      -2.878  -0.481   0.842  1.00  0.00    -0.648 OA
BRANCH  14  16
HETATM   16  OXT UNL     1      -2.706   1.568   0.036  1.00  0.00    -0.775 OA
HETATM   17  HXT UNL     1      -3.656   1.718   0.135  1.00  0.00     0.167 HD
ENDBRANCH  14  16
ENDBRANCH   1  14
BRANCH   1  18
HETATM   18  N   UNL     1      -0.187   0.943  -0.886  1.00  0.00    -0.344 N 
HETATM   19  C   UNL     1      -0.171   0.412  -2.125  1.00  0.00     0.223 C 
HETATM   20  O   UNL     1      -0.574  -0.717  -2.305  1.00  0.00    -0.273 OA
HETATM   21  H   UNL     1       0.134   1.847  -0.742  1.00  0.00     0.163 HD
BRANCH  19  22
HETATM   22  C   UNL     1       0.346   1.221  -3.286  1.00  0.00     0.148 C 
BRANCH  22  23
HETATM   23  C   UNL     1       0.256   0.403  -4.548  1.00  0.00    -0.009 A 
HETATM   24  C   UNL     1      -0.766   0.309  -5.433  1.00  0.00     0.015 A 
HETATM   25  C   UNL     1      -0.624  -0.510  -6.537  1.00  0.00     0.008 A 
HETATM   26  C   UNL     1       0.528  -1.204  -6.696  1.00  0.00     0.050 A 
HETATM   27  S   UNL     1       1.465  -0.698  -5.263  1.00  0.00    -0.106 SA
ENDBRANCH  22  23
ENDBRANCH  19  22
ENDBRANCH   1  18
TORSDOF 8
