KCP
  -OEChem-07282321083D

 39 40  0     1  0  0  0  0  0999 V2000
    1.8120    0.2550    1.3680 S   0  0  0  0  0  0  0  0  0  0  0  0
    2.3370    0.8110    3.0180 C   0  0  0  0  0  0  0  0  0  0  0  0
    1.4440    0.2130    4.0640 C   0  0  0  0  0  0  0  0  0  0  0  0
    2.0000    0.0960    5.4600 C   0  0  0  0  0  0  0  0  0  0  0  0
    0.2160   -0.2120    3.8680 C   0  0  0  0  0  0  0  0  0  0  0  0
   -0.4980   -0.7510    5.0390 C   0  0  0  0  0  0  0  0  0  0  0  0
   -1.7600   -1.2050    4.9080 O   0  0  0  0  0  0  0  0  0  0  0  0
    0.0500   -0.7870    6.1230 O   0  0  0  0  0  0  0  0  0  0  0  0
   -0.4700   -0.2010    2.6590 N   0  0  0  0  0  0  0  0  0  0  0  0
    0.0280    0.5830    1.5220 C   0  0  2  0  0  0  0  0  0  0  0  0
   -0.6910    0.1560    0.2410 C   0  0  1  0  0  0  0  0  0  0  0  0
   -2.1720    0.3900    0.3950 C   0  0  0  0  0  0  0  0  0  0  0  0
   -2.8780   -0.4810    0.8420 O   0  0  0  0  0  0  0  0  0  0  0  0
   -2.7060    1.5680    0.0360 O   0  0  0  0  0  0  0  0  0  0  0  0
   -0.1870    0.9430   -0.8860 N   0  0  0  0  0  0  0  0  0  0  0  0
   -0.1710    0.4120   -2.1250 C   0  0  0  0  0  0  0  0  0  0  0  0
   -0.5740   -0.7170   -2.3050 O   0  0  0  0  0  0  0  0  0  0  0  0
    0.3460    1.2210   -3.2860 C   0  0  0  0  0  0  0  0  0  0  0  0
    0.2560    0.4030   -4.5480 C   0  0  0  0  0  0  0  0  0  0  0  0
   -0.7660    0.3090   -5.4330 C   0  0  0  0  0  0  0  0  0  0  0  0
   -0.6240   -0.5100   -6.5370 C   0  0  0  0  0  0  0  0  0  0  0  0
    0.5280   -1.2040   -6.6960 C   0  0  0  0  0  0  0  0  0  0  0  0
    1.4650   -0.6980   -5.2630 S   0  0  0  0  0  0  0  0  0  0  0  0
    2.2830    1.8990    3.0670 H   0  0  0  0  0  0  0  0  0  0  0  0
    3.3640    0.4920    3.1970 H   0  0  0  0  0  0  0  0  0  0  0  0
    3.0190    0.4840    5.4790 H   0  0  0  0  0  0  0  0  0  0  0  0
    1.3800    0.6720    6.1480 H   0  0  0  0  0  0  0  0  0  0  0  0
    2.0040   -0.9500    5.7630 H   0  0  0  0  0  0  0  0  0  0  0  0
   -2.2290   -1.5590    5.6760 H   0  0  0  0  0  0  0  0  0  0  0  0
   -1.2870   -0.7160    2.5660 H   0  0  0  0  0  0  0  0  0  0  0  0
   -0.1370    1.6450    1.7040 H   0  0  0  0  0  0  0  0  0  0  0  0
   -0.5080   -0.9010    0.0570 H   0  0  0  0  0  0  0  0  0  0  0  0
   -3.6560    1.7180    0.1350 H   0  0  0  0  0  0  0  0  0  0  0  0
    0.1340    1.8470   -0.7420 H   0  0  0  0  0  0  0  0  0  0  0  0
   -0.2520    2.1250   -3.3950 H   0  0  0  0  0  0  0  0  0  0  0  0
    1.3850    1.4940   -3.1030 H   0  0  0  0  0  0  0  0  0  0  0  0
   -1.6750    0.8730   -5.2820 H   0  0  0  0  0  0  0  0  0  0  0  0
   -1.4220   -0.5990   -7.2590 H   0  0  0  0  0  0  0  0  0  0  0  0
    0.8080   -1.8850   -7.4860 H   0  0  0  0  0  0  0  0  0  0  0  0
  1  2  1  0  0  0  0
  1 10  1  0  0  0  0
  2  3  1  0  0  0  0
  2 24  1  0  0  0  0
  2 25  1  0  0  0  0
  3  4  1  0  0  0  0
  3  5  2  0  0  0  0
  4 26  1  0  0  0  0
  4 27  1  0  0  0  0
  4 28  1  0  0  0  0
  5  6  1  0  0  0  0
  5  9  1  0  0  0  0
  6  7  1  0  0  0  0
  6  8  2  0  0  0  0
  7 29  1  0  0  0  0
  9 10  1  0  0  0  0
  9 30  1  0  0  0  0
 10 11  1  0  0  0  0
 10 31  1  0  0  0  0
 11 12  1  0  0  0  0
 11 15  1  0  0  0  0
 11 32  1  0  0  0  0
 12 13  2  0  0  0  0
 12 14  1  0  0  0  0
 14 33  1  0  0  0  0
 15 16  1  0  0  0  0
 15 34  1  0  0  0  0
 16 17  2  0  0  0  0
 16 18  1  0  0  0  0
 18 19  1  0  0  0  0
 18 35  1  0  0  0  0
 18 36  1  0  0  0  0
 19 20  2  0  0  0  0
 19 23  1  0  0  0  0
 20 21  1  0  0  0  0
 20 37  1  0  0  0  0
 21 22  2  0  0  0  0
 21 38  1  0  0  0  0
 22 23  1  0  0  0  0
 22 39  1  0  0  0  0
M  END
> <OPENEYE_ISO_SMILES>
CC1=C(N[C@@H](SC1)[C@@H](C(=O)O)NC(=O)Cc2cccs2)C(=O)O

> <OPENEYE_INCHI>
InChI=1S/C14H16N2O5S2/c1-7-6-23-12(16-10(7)13(18)19)11(14(20)21)15-9(17)5-8-3-2-4-22-8/h2-4,11-12,16H,5-6H2,1H3,(H,15,17)(H,18,19)(H,20,21)/t11-,12-/m0/s1

> <OPENEYE_INCHIKEY>
JRYZEMHNDUZNMI-RYUDHWBXSA-N

> <FORMULA>
C14H16N2O5S2

$$$$
