REMARK  9 active torsions:
REMARK  status: ('A' for Active; 'I' for Inactive)
REMARK    1  A    between atoms: C_2  and  S_26 
REMARK    2  A    between atoms: CA_3  and  C_9 
REMARK    3  A    between atoms: C_4  and  C_12 
REMARK    4  A    between atoms: C_5  and  C_12 
REMARK    5  A    between atoms: C_7  and  S_26 
REMARK    6  A    between atoms: C_9  and  OXT_21 
REMARK    7  A    between atoms: C_11  and  C_15 
REMARK    8  A    between atoms: C_12  and  C_13 
REMARK    9  A    between atoms: C_13  and  O_23 
REMARK       I    between atoms: C_15  and  N_20 
ROOT
HETATM    1  C   UNL     1       1.496   0.789   0.260  1.00  0.00     0.047 A 
HETATM    2  C   UNL     1       0.919  -0.544  -0.158  1.00  0.00     0.018 A 
HETATM    3  CA  UNL     1       1.803  -1.514   0.144  1.00  0.00     0.116 A 
HETATM    4  C   UNL     1       2.870   0.447   0.863  1.00  0.00     0.103 A 
HETATM    5  C   UNL     1       1.659   1.705  -0.955  1.00  0.00     0.017 C 
HETATM    6  N   UNL     1       2.971  -1.016   0.743  1.00  0.00    -0.378 N 
HETATM    7  H   UNL     1       3.725  -1.553   1.034  1.00  0.00     0.160 HD
ENDROOT
BRANCH   2   8
HETATM    8  S   UNL     1      -0.652  -0.789  -0.916  1.00  0.00    -0.125 SA
BRANCH   8   9
HETATM    9  C   UNL     1      -1.738  -0.292   0.444  1.00  0.00     0.083 C 
HETATM   10  C   UNL     1      -3.215  -0.573   0.082  1.00  0.00     0.062 C 
HETATM   11  C   UNL     1      -3.955   0.657   0.664  1.00  0.00     0.312 C 
HETATM   12  N   UNL     1      -3.012   1.775   0.404  1.00  0.00     0.098 N 
HETATM   13  C   UNL     1      -1.661   1.231   0.661  1.00  0.00     0.286 C 
HETATM   14  H   UNL     1      -3.095   2.104  -0.546  1.00  0.00     0.317 HD
BRANCH  11  15
HETATM   15  C   UNL     1      -5.259   0.883  -0.057  1.00  0.00     0.252 C 
HETATM   16  O   UNL     1      -5.335   1.730  -0.921  1.00  0.00    -0.271 OA
HETATM   17  N   UNL     1      -6.340   0.144   0.260  1.00  0.00    -0.359 N 
HETATM   18  C   UNL     1      -7.608   0.363  -0.440  1.00  0.00     0.152 C 
HETATM   19  C   UNL     1      -6.248  -0.880   1.304  1.00  0.00     0.152 C 
ENDBRANCH  11  15
ENDBRANCH   8   9
ENDBRANCH   2   8
BRANCH   3  20
HETATM   20  C   UNL     1       1.579  -2.886  -0.116  1.00  0.00     0.194 C 
HETATM   21  O   UNL     1       0.586  -3.236  -0.727  1.00  0.00    -0.645 OA
BRANCH  20  22
HETATM   22  OXT UNL     1       2.467  -3.808   0.313  1.00  0.00    -0.772 OA
HETATM   23  HXT UNL     1       2.229  -4.718   0.088  1.00  0.00     0.167 HD
ENDBRANCH  20  22
ENDBRANCH   3  20
BRANCH   4  24
HETATM   24  C   UNL     1       3.986   1.129   0.068  1.00  0.00     0.099 C 
BRANCH  24  25
HETATM   25  C   UNL     1       4.043   0.545  -1.320  1.00  0.00     0.240 C 
HETATM   26  O   UNL     1       4.012   1.273  -2.283  1.00  0.00    -0.306 OA
ENDBRANCH  24  25
BRANCH  24  27
HETATM   27  C   UNL     1       5.325   0.902   0.772  1.00  0.00     0.126 C 
HETATM   28  C   UNL     1       6.441   1.583  -0.023  1.00  0.00     0.040 C 
BRANCH  27  29
HETATM   29  O   UNL     1       5.271   1.456   2.088  1.00  0.00    -0.395 OA
HETATM   30  H   UNL     1       5.096   2.406   2.108  1.00  0.00     0.210 HD
ENDBRANCH  27  29
ENDBRANCH  24  27
ENDBRANCH   4  24
TORSDOF 9
