KE1
  -OEChem-07282321083D

 53 54  0     1  0  0  0  0  0999 V2000
    1.4960    0.7890    0.2600 C   0  0  1  0  0  0  0  0  0  0  0  0
    0.9190   -0.5440   -0.1580 C   0  0  0  0  0  0  0  0  0  0  0  0
    1.8030   -1.5140    0.1440 C   0  0  0  0  0  0  0  0  0  0  0  0
    2.8700    0.4470    0.8630 C   0  0  2  0  0  0  0  0  0  0  0  0
    4.0430    0.5450   -1.3200 C   0  0  0  0  0  0  0  0  0  0  0  0
    1.6590    1.7050   -0.9550 C   0  0  0  0  0  0  0  0  0  0  0  0
   -1.7380   -0.2920    0.4440 C   0  0  1  0  0  0  0  0  0  0  0  0
   -1.6610    1.2310    0.6610 C   0  0  0  0  0  0  0  0  0  0  0  0
    1.5790   -2.8860   -0.1160 C   0  0  0  0  0  0  0  0  0  0  0  0
   -3.2150   -0.5730    0.0820 C   0  0  0  0  0  0  0  0  0  0  0  0
   -3.9550    0.6570    0.6640 C   0  0  2  0  0  0  0  0  0  0  0  0
    3.9860    1.1290    0.0680 C   0  0  2  0  0  0  0  0  0  0  0  0
    5.3250    0.9020    0.7720 C   0  0  1  0  0  0  0  0  0  0  0  0
    6.4410    1.5830   -0.0230 C   0  0  0  0  0  0  0  0  0  0  0  0
   -5.2590    0.8830   -0.0570 C   0  0  0  0  0  0  0  0  0  0  0  0
   -7.6080    0.3630   -0.4400 C   0  0  0  0  0  0  0  0  0  0  0  0
   -6.2480   -0.8800    1.3040 C   0  0  0  0  0  0  0  0  0  0  0  0
   -3.0120    1.7750    0.4040 N   0  0  0  0  0  0  0  0  0  0  0  0
    2.9710   -1.0160    0.7430 N   0  0  0  0  0  0  0  0  0  0  0  0
   -6.3400    0.1440    0.2600 N   0  0  0  0  0  0  0  0  0  0  0  0
    2.4670   -3.8080    0.3130 O   0  0  0  0  0  0  0  0  0  0  0  0
    0.5860   -3.2360   -0.7270 O   0  0  0  0  0  0  0  0  0  0  0  0
    5.2710    1.4560    2.0880 O   0  0  0  0  0  0  0  0  0  0  0  0
   -5.3350    1.7300   -0.9210 O   0  0  0  0  0  0  0  0  0  0  0  0
    4.0120    1.2730   -2.2830 O   0  0  0  0  0  0  0  0  0  0  0  0
   -0.6520   -0.7890   -0.9160 S   0  0  0  0  0  0  0  0  0  0  0  0
    0.8590    1.2610    1.0080 H   0  0  0  0  0  0  0  0  0  0  0  0
    2.9110    0.7490    1.9090 H   0  0  0  0  0  0  0  0  0  0  0  0
    4.1100   -0.5250   -1.4540 H   0  0  0  0  0  0  0  0  0  0  0  0
    0.6800    2.0670   -1.2710 H   0  0  0  0  0  0  0  0  0  0  0  0
    2.2910    2.5530   -0.6890 H   0  0  0  0  0  0  0  0  0  0  0  0
    2.1210    1.1490   -1.7700 H   0  0  0  0  0  0  0  0  0  0  0  0
   -1.4640   -0.8180    1.3580 H   0  0  0  0  0  0  0  0  0  0  0  0
   -1.3630    1.4450    1.6870 H   0  0  0  0  0  0  0  0  0  0  0  0
   -0.9460    1.6690   -0.0350 H   0  0  0  0  0  0  0  0  0  0  0  0
   -3.3440   -0.6260   -0.9990 H   0  0  0  0  0  0  0  0  0  0  0  0
   -3.5600   -1.4920    0.5580 H   0  0  0  0  0  0  0  0  0  0  0  0
   -4.1210    0.5350    1.7340 H   0  0  0  0  0  0  0  0  0  0  0  0
    3.7860    2.1980    0.0040 H   0  0  0  0  0  0  0  0  0  0  0  0
    5.5260   -0.1680    0.8360 H   0  0  0  0  0  0  0  0  0  0  0  0
    6.2410    2.6530   -0.0870 H   0  0  0  0  0  0  0  0  0  0  0  0
    7.3950    1.4220    0.4790 H   0  0  0  0  0  0  0  0  0  0  0  0
    6.4820    1.1610   -1.0270 H   0  0  0  0  0  0  0  0  0  0  0  0
   -7.6530   -0.2790   -1.3200 H   0  0  0  0  0  0  0  0  0  0  0  0
   -8.4380    0.1250    0.2260 H   0  0  0  0  0  0  0  0  0  0  0  0
   -7.6780    1.4060   -0.7480 H   0  0  0  0  0  0  0  0  0  0  0  0
   -6.4950   -0.4370    2.2690 H   0  0  0  0  0  0  0  0  0  0  0  0
   -6.9480   -1.6860    1.0850 H   0  0  0  0  0  0  0  0  0  0  0  0
   -5.2340   -1.2770    1.3350 H   0  0  0  0  0  0  0  0  0  0  0  0
   -3.0950    2.1040   -0.5460 H   0  0  0  0  0  0  0  0  0  0  0  0
    3.7250   -1.5530    1.0340 H   0  0  0  0  0  0  0  0  0  0  0  0
    2.2290   -4.7180    0.0880 H   0  0  0  0  0  0  0  0  0  0  0  0
    5.0960    2.4060    2.1080 H   0  0  0  0  0  0  0  0  0  0  0  0
  9 22  2  0  0  0  0
  5 25  2  0  0  0  0
  7 10  1  0  0  0  0
 10 11  1  0  0  0  0
  9 21  1  0  0  0  0
  7 26  1  0  0  0  0
  7  8  1  0  0  0  0
  3  9  1  0  0  0  0
  2 26  1  0  0  0  0
  5 12  1  0  0  0  0
 11 18  1  0  0  0  0
 11 15  1  0  0  0  0
  8 18  1  0  0  0  0
  3 19  1  0  0  0  0
  2  3  2  0  0  0  0
  4 19  1  0  0  0  0
  4 12  1  0  0  0  0
 12 13  1  0  0  0  0
  1  2  1  0  0  0  0
 13 23  1  0  0  0  0
 15 24  2  0  0  0  0
 15 20  1  0  0  0  0
  1  4  1  0  0  0  0
 13 14  1  0  0  0  0
  1  6  1  0  0  0  0
 16 20  1  0  0  0  0
 17 20  1  0  0  0  0
  1 27  1  0  0  0  0
  4 28  1  0  0  0  0
  5 29  1  0  0  0  0
  6 30  1  0  0  0  0
  6 31  1  0  0  0  0
  6 32  1  0  0  0  0
  7 33  1  0  0  0  0
  8 34  1  0  0  0  0
  8 35  1  0  0  0  0
 10 36  1  0  0  0  0
 10 37  1  0  0  0  0
 11 38  1  0  0  0  0
 12 39  1  0  0  0  0
 13 40  1  0  0  0  0
 14 41  1  0  0  0  0
 14 42  1  0  0  0  0
 14 43  1  0  0  0  0
 16 44  1  0  0  0  0
 16 45  1  0  0  0  0
 16 46  1  0  0  0  0
 17 47  1  0  0  0  0
 17 48  1  0  0  0  0
 17 49  1  0  0  0  0
 18 50  1  0  0  0  0
 19 51  1  0  0  0  0
 21 52  1  0  0  0  0
 23 53  1  0  0  0  0
M  END
> <OPENEYE_ISO_SMILES>
C[C@@H]1[C@@H](NC(=C1S[C@@H]2C[C@@H](NC2)C(=O)N(C)C)C(=O)O)[C@H](C=O)[C@@H](C)O

> <OPENEYE_INCHI>
InChI=1S/C17H27N3O5S/c1-8-13(11(7-21)9(2)22)19-14(17(24)25)15(8)26-10-5-12(18-6-10)16(23)20(3)4/h7-13,18-19,22H,5-6H2,1-4H3,(H,24,25)/t8-,9-,10-,11-,12-,13-/m1/s1

> <OPENEYE_INCHIKEY>
DYQHXZPAIVAJRU-PCEBWVJKSA-N

> <FORMULA>
C17H27N3O5S

$$$$
