REMARK  10 active torsions:
REMARK  status: ('A' for Active; 'I' for Inactive)
REMARK    1  A    between atoms: B_1  and  O_24 
REMARK    2  A    between atoms: C_3  and  C_4 
REMARK    3  A    between atoms: C_4  and  O_27 
REMARK    4  A    between atoms: C_10  and  N_21 
REMARK    5  A    between atoms: C_11  and  C_12 
REMARK       I    between atoms: C_11  and  N_21 
REMARK    6  A    between atoms: C_12  and  C_13 
REMARK    7  A    between atoms: C_16  and  N_22 
REMARK    8  A    between atoms: C_17  and  N_22 
REMARK    9  A    between atoms: C_17  and  C_18 
REMARK   10  A    between atoms: C_18  and  N_23 
ROOT
HETATM    1  C   UNL     1      -0.559  -1.275  -0.177  1.00  0.00     0.217 C 
HETATM    2  N   UNL     1       0.677  -1.499  -0.664  1.00  0.00    -0.360 N 
HETATM    3  O   UNL     1      -0.709  -0.570   0.798  1.00  0.00    -0.274 OA
HETATM    4  H   UNL     1       0.797  -2.063  -1.444  1.00  0.00     0.162 HD
ENDROOT
BRANCH   2   5
HETATM    5  C   UNL     1       1.841  -0.889  -0.016  1.00  0.00     0.115 C 
HETATM    6  B   UNL     1       2.373   0.318  -0.887  1.00  0.00     0.522 B 
HETATM    7  O   UNL     1       3.553   0.964  -0.422  1.00  0.00    -0.386 OA
HETATM    8  C   UNL     1       4.504   0.130   0.068  1.00  0.00     0.075 A 
HETATM    9  C   UNL     1       5.770   0.695   0.325  1.00  0.00     0.070 A 
HETATM   10  C   UNL     1       4.291  -1.207   0.338  1.00  0.00    -0.024 A 
HETATM   11  C   UNL     1       6.794  -0.089   0.856  1.00  0.00     0.021 A 
HETATM   12  C   UNL     1       6.561  -1.419   1.129  1.00  0.00     0.002 A 
HETATM   13  C   UNL     1       5.320  -1.972   0.872  1.00  0.00     0.010 A 
HETATM   14  C   UNL     1       2.981  -1.907   0.076  1.00  0.00     0.062 C 
BRANCH   6  15
HETATM   15  O   UNL     1       1.706   0.739  -2.067  1.00  0.00    -0.436 OA
HETATM   16  H   UNL     1       2.128   1.487  -2.512  1.00  0.00     0.185 HD
ENDBRANCH   6  15
BRANCH   9  17
HETATM   17  C   UNL     1       6.012   2.119   0.032  1.00  0.00     0.178 C 
HETATM   18  O   UNL     1       5.121   2.804  -0.431  1.00  0.00    -0.646 OA
BRANCH  17  19
HETATM   19  O   UNL     1       7.221   2.661   0.276  1.00  0.00    -0.773 OA
HETATM   20  H   UNL     1       7.332   3.599   0.068  1.00  0.00     0.167 HD
ENDBRANCH  17  19
ENDBRANCH   9  17
ENDBRANCH   2   5
BRANCH   1  21
HETATM   21  C   UNL     1      -1.756  -1.903  -0.844  1.00  0.00     0.107 C 
BRANCH  21  22
HETATM   22  C   UNL     1      -3.028  -1.492  -0.099  1.00  0.00    -0.006 C 
HETATM   23  C   UNL     1      -3.234   0.018  -0.235  1.00  0.00     0.007 C 
HETATM   24  C   UNL     1      -4.506   0.428   0.510  1.00  0.00     0.036 C 
HETATM   25  C   UNL     1      -5.707  -0.306  -0.089  1.00  0.00     0.220 C 
HETATM   26  C   UNL     1      -5.501  -1.816   0.047  1.00  0.00     0.036 C 
HETATM   27  C   UNL     1      -4.229  -2.226  -0.698  1.00  0.00     0.007 C 
BRANCH  25  28
HETATM   28  N   UNL     1      -6.928   0.088   0.626  1.00  0.00     0.089 N 
HETATM   29  H   UNL     1      -7.611  -0.655   0.613  1.00  0.00     0.316 HD
BRANCH  28  30
HETATM   30  C   UNL     1      -7.488   1.327   0.069  1.00  0.00     0.299 C 
BRANCH  30  31
HETATM   31  C   UNL     1      -8.756   1.705   0.838  1.00  0.00     0.296 C 
BRANCH  31  32
HETATM   32  N   UNL     1      -9.315   2.944   0.281  1.00  0.00     0.080 N 
HETATM   33  H   UNL     1      -9.490   2.849  -0.708  1.00  0.00     0.312 HD
HETATM   34  H   UNL     1     -10.154   3.214   0.772  1.00  0.00     0.312 HD
ENDBRANCH  31  32
ENDBRANCH  30  31
ENDBRANCH  28  30
ENDBRANCH  25  28
ENDBRANCH  21  22
ENDBRANCH   1  21
TORSDOF 10
