KJK
  -OEChem-07282321083D

 56 58  0     1  0  0  0  0  0999 V2000
    2.3730    0.3180   -0.8870 B   0  0  0  0  0  0  0  0  0  0  0  0
    4.5040    0.1300    0.0680 C   0  0  0  0  0  0  0  0  0  0  0  0
    5.7700    0.6950    0.3250 C   0  0  0  0  0  0  0  0  0  0  0  0
    6.0120    2.1190    0.0320 C   0  0  0  0  0  0  0  0  0  0  0  0
    6.7940   -0.0890    0.8560 C   0  0  0  0  0  0  0  0  0  0  0  0
    6.5610   -1.4190    1.1290 C   0  0  0  0  0  0  0  0  0  0  0  0
    5.3200   -1.9720    0.8720 C   0  0  0  0  0  0  0  0  0  0  0  0
    4.2910   -1.2070    0.3380 C   0  0  0  0  0  0  0  0  0  0  0  0
    2.9810   -1.9070    0.0760 C   0  0  0  0  0  0  0  0  0  0  0  0
    1.8410   -0.8890   -0.0160 C   0  0  2  0  0  0  0  0  0  0  0  0
   -0.5590   -1.2750   -0.1770 C   0  0  0  0  0  0  0  0  0  0  0  0
   -1.7560   -1.9030   -0.8440 C   0  0  0  0  0  0  0  0  0  0  0  0
   -3.0280   -1.4920   -0.0990 C   0  0  0  0  0  0  0  0  0  0  0  0
   -4.2290   -2.2260   -0.6980 C   0  0  0  0  0  0  0  0  0  0  0  0
   -5.5010   -1.8160    0.0470 C   0  0  0  0  0  0  0  0  0  0  0  0
   -5.7070   -0.3060   -0.0890 C   0  0  0  0  0  0  0  0  0  0  0  0
   -7.4880    1.3270    0.0690 C   0  0  0  0  0  0  0  0  0  0  0  0
   -8.7560    1.7050    0.8380 C   0  0  0  0  0  0  0  0  0  0  0  0
   -4.5060    0.4280    0.5100 C   0  0  0  0  0  0  0  0  0  0  0  0
   -3.2340    0.0180   -0.2350 C   0  0  0  0  0  0  0  0  0  0  0  0
    0.6770   -1.4990   -0.6640 N   0  0  0  0  0  0  0  0  0  0  0  0
   -6.9280    0.0880    0.6260 N   0  0  0  0  0  0  0  0  0  0  0  0
   -9.3150    2.9440    0.2810 N   0  0  0  0  0  0  0  0  0  0  0  0
    1.7060    0.7390   -2.0670 O   0  0  0  0  0  0  0  0  0  0  0  0
    3.5530    0.9640   -0.4220 O   0  0  0  0  0  0  0  0  0  0  0  0
    5.1210    2.8040   -0.4310 O   0  0  0  0  0  0  0  0  0  0  0  0
    7.2210    2.6610    0.2760 O   0  0  0  0  0  0  0  0  0  0  0  0
   -0.7090   -0.5700    0.7980 O   0  0  0  0  0  0  0  0  0  0  0  0
    7.7630    0.3440    1.0520 H   0  0  0  0  0  0  0  0  0  0  0  0
    7.3480   -2.0310    1.5440 H   0  0  0  0  0  0  0  0  0  0  0  0
    5.1480   -3.0160    1.0890 H   0  0  0  0  0  0  0  0  0  0  0  0
    3.0480   -2.4590   -0.8610 H   0  0  0  0  0  0  0  0  0  0  0  0
    2.7750   -2.6020    0.8910 H   0  0  0  0  0  0  0  0  0  0  0  0
    1.5730   -0.5390    0.9810 H   0  0  0  0  0  0  0  0  0  0  0  0
   -1.8160   -1.5630   -1.8780 H   0  0  0  0  0  0  0  0  0  0  0  0
   -1.6570   -2.9880   -0.8220 H   0  0  0  0  0  0  0  0  0  0  0  0
   -2.9320   -1.7520    0.9550 H   0  0  0  0  0  0  0  0  0  0  0  0
   -4.3260   -1.9660   -1.7520 H   0  0  0  0  0  0  0  0  0  0  0  0
   -4.0830   -3.3020   -0.6010 H   0  0  0  0  0  0  0  0  0  0  0  0
   -6.3570   -2.3390   -0.3800 H   0  0  0  0  0  0  0  0  0  0  0  0
   -5.4050   -2.0760    1.1010 H   0  0  0  0  0  0  0  0  0  0  0  0
   -5.8030   -0.0460   -1.1430 H   0  0  0  0  0  0  0  0  0  0  0  0
   -7.7320    1.1750   -0.9820 H   0  0  0  0  0  0  0  0  0  0  0  0
   -6.7560    2.1290    0.1600 H   0  0  0  0  0  0  0  0  0  0  0  0
   -9.4880    0.9020    0.7480 H   0  0  0  0  0  0  0  0  0  0  0  0
   -8.5110    1.8570    1.8890 H   0  0  0  0  0  0  0  0  0  0  0  0
   -4.6530    1.5040    0.4130 H   0  0  0  0  0  0  0  0  0  0  0  0
   -4.4100    0.1680    1.5640 H   0  0  0  0  0  0  0  0  0  0  0  0
   -2.3780    0.5410    0.1920 H   0  0  0  0  0  0  0  0  0  0  0  0
   -3.3300    0.2780   -1.2890 H   0  0  0  0  0  0  0  0  0  0  0  0
    0.7970   -2.0630   -1.4440 H   0  0  0  0  0  0  0  0  0  0  0  0
   -7.6110   -0.6550    0.6130 H   0  0  0  0  0  0  0  0  0  0  0  0
   -9.4900    2.8490   -0.7080 H   0  0  0  0  0  0  0  0  0  0  0  0
  -10.1540    3.2140    0.7720 H   0  0  0  0  0  0  0  0  0  0  0  0
    2.1280    1.4870   -2.5120 H   0  0  0  0  0  0  0  0  0  0  0  0
    7.3320    3.5990    0.0680 H   0  0  0  0  0  0  0  0  0  0  0  0
 19 20  1  0  0  0  0
 13 20  1  0  0  0  0
 16 19  1  0  0  0  0
 12 13  1  0  0  0  0
 11 12  1  0  0  0  0
 16 22  1  0  0  0  0
 15 16  1  0  0  0  0
 13 14  1  0  0  0  0
 17 22  1  0  0  0  0
 14 15  1  0  0  0  0
 17 18  1  0  0  0  0
  1 24  1  0  0  0  0
 11 21  1  0  0  0  0
 11 28  2  0  0  0  0
  4 26  2  0  0  0  0
 10 21  1  0  0  0  0
 18 23  1  0  0  0  0
  1 10  1  0  0  0  0
  1 25  1  0  0  0  0
  9 10  1  0  0  0  0
  3  4  1  0  0  0  0
  4 27  1  0  0  0  0
  2 25  1  0  0  0  0
  2  3  2  0  0  0  0
  3  5  1  0  0  0  0
  2  8  1  0  0  0  0
  5  6  2  0  0  0  0
  8  9  1  0  0  0  0
  7  8  2  0  0  0  0
  6  7  1  0  0  0  0
  5 29  1  0  0  0  0
  6 30  1  0  0  0  0
  7 31  1  0  0  0  0
  9 32  1  0  0  0  0
  9 33  1  0  0  0  0
 10 34  1  0  0  0  0
 12 35  1  0  0  0  0
 12 36  1  0  0  0  0
 13 37  1  0  0  0  0
 14 38  1  0  0  0  0
 14 39  1  0  0  0  0
 15 40  1  0  0  0  0
 15 41  1  0  0  0  0
 16 42  1  0  0  0  0
 17 43  1  0  0  0  0
 17 44  1  0  0  0  0
 18 45  1  0  0  0  0
 18 46  1  0  0  0  0
 19 47  1  0  0  0  0
 19 48  1  0  0  0  0
 20 49  1  0  0  0  0
 20 50  1  0  0  0  0
 21 51  1  0  0  0  0
 22 52  1  0  0  0  0
 23 53  1  0  0  0  0
 23 54  1  0  0  0  0
 24 55  1  0  0  0  0
 27 56  1  0  0  0  0
M  END
> <OPENEYE_ISO_SMILES>
B1([C@H](Cc2cccc(c2O1)C(=O)O)NC(=O)CC3CCC(CC3)NCCN)O

> <OPENEYE_INCHI>
InChI=1S/C19H28BN3O5/c21-8-9-22-14-6-4-12(5-7-14)10-17(24)23-16-11-13-2-1-3-15(19(25)26)18(13)28-20(16)27/h1-3,12,14,16,22,27H,4-11,21H2,(H,23,24)(H,25,26)/t12-,14-,16-/m0/s1

> <OPENEYE_INCHIKEY>
PFZUWUXKQPRWAL-NOLJZWGESA-N

> <FORMULA>
C19H28BN3O5

$$$$
