KL8
  -OEChem-07282321083D

 39 41  0     1  0  0  0  0  0999 V2000
   -0.8000   -1.1140    0.4950 B   0  5  0  0  0  0  0  0  0  0  0  0
    0.1710   -0.0220   -0.1610 C   0  0  1  0  0  0  0  0  0  0  0  0
    2.8770    0.5110   -0.8370 C   0  0  0  0  0  0  0  0  0  0  0  0
    4.3350    0.2920   -0.5260 C   0  0  0  0  0  0  0  0  0  0  0  0
    4.9820   -0.8320   -1.0020 C   0  0  0  0  0  0  0  0  0  0  0  0
    6.3190   -1.0340   -0.7160 C   0  0  0  0  0  0  0  0  0  0  0  0
    7.0100   -0.1100    0.0470 C   0  0  0  0  0  0  0  0  0  0  0  0
    6.3630    1.0150    0.5230 C   0  0  0  0  0  0  0  0  0  0  0  0
    5.0270    1.2190    0.2320 C   0  0  0  0  0  0  0  0  0  0  0  0
   -0.3480    1.3630    0.2430 C   0  0  0  0  0  0  0  0  0  0  0  0
   -1.8470    1.3970    0.0690 C   0  0  0  0  0  0  0  0  0  0  0  0
   -2.5870    0.2390   -0.0710 C   0  0  0  0  0  0  0  0  0  0  0  0
   -3.9840    0.3290   -0.2230 C   0  0  0  0  0  0  0  0  0  0  0  0
   -4.7900   -0.8960   -0.3690 C   0  0  0  0  0  0  0  0  0  0  0  0
   -4.6060    1.5780   -0.2350 C   0  0  0  0  0  0  0  0  0  0  0  0
   -3.8500    2.7210   -0.0970 C   0  0  0  0  0  0  0  0  0  0  0  0
   -2.4780    2.6300    0.0540 C   0  0  0  0  0  0  0  0  0  0  0  0
   -0.3070   -2.3680    0.2660 O   0  0  0  0  0  0  0  0  0  0  0  0
   -0.8940   -0.8960    1.8410 O   0  0  0  0  0  0  0  0  0  0  0  0
   -6.1270   -0.8100   -0.5150 O   0  0  0  0  0  0  0  0  0  0  0  0
   -4.2490   -1.9840   -0.3590 O   0  0  0  0  0  0  0  0  0  0  0  0
   -2.0320   -0.9950   -0.0750 O   0  0  0  0  0  0  0  0  0  0  0  0
    1.8610   -0.2500    0.4580 S   0  0  0  0  0  0  0  0  0  0  0  0
    0.1580   -0.1190   -1.2460 H   0  0  0  0  0  0  0  0  0  0  0  0
    2.6710    1.5810   -0.8790 H   0  0  0  0  0  0  0  0  0  0  0  0
    2.6390    0.0580   -1.7990 H   0  0  0  0  0  0  0  0  0  0  0  0
    4.4430   -1.5540   -1.5970 H   0  0  0  0  0  0  0  0  0  0  0  0
    6.8250   -1.9130   -1.0870 H   0  0  0  0  0  0  0  0  0  0  0  0
    8.0540   -0.2670    0.2710 H   0  0  0  0  0  0  0  0  0  0  0  0
    6.9020    1.7370    1.1180 H   0  0  0  0  0  0  0  0  0  0  0  0
    4.5210    2.0980    0.6030 H   0  0  0  0  0  0  0  0  0  0  0  0
   -0.0970    1.5560    1.2860 H   0  0  0  0  0  0  0  0  0  0  0  0
    0.1110    2.1230   -0.3900 H   0  0  0  0  0  0  0  0  0  0  0  0
   -5.6780    1.6480   -0.3520 H   0  0  0  0  0  0  0  0  0  0  0  0
   -4.3280    3.6890   -0.1090 H   0  0  0  0  0  0  0  0  0  0  0  0
   -1.8920    3.5310    0.1620 H   0  0  0  0  0  0  0  0  0  0  0  0
   -0.8560   -3.0780    0.6260 H   0  0  0  0  0  0  0  0  0  0  0  0
   -1.4790   -1.5140    2.3000 H   0  0  0  0  0  0  0  0  0  0  0  0
   -6.6130   -1.6410   -0.6070 H   0  0  0  0  0  0  0  0  0  0  0  0
  6  7  2  0  0  0  0
  7  8  1  0  0  0  0
  5  6  1  0  0  0  0
  8  9  2  0  0  0  0
  4  5  2  0  0  0  0
  4  9  1  0  0  0  0
  3  4  1  0  0  0  0
  3 23  1  0  0  0  0
 16 17  2  0  0  0  0
 15 16  1  0  0  0  0
  2 23  1  0  0  0  0
 11 17  1  0  0  0  0
  1 18  1  0  0  0  0
  2 10  1  0  0  0  0
  1  2  1  0  0  0  0
 13 15  2  0  0  0  0
 10 11  1  0  0  0  0
 11 12  2  0  0  0  0
  1 22  1  0  0  0  0
  1 19  1  0  0  0  0
 12 13  1  0  0  0  0
 13 14  1  0  0  0  0
 12 22  1  0  0  0  0
 14 21  2  0  0  0  0
 14 20  1  0  0  0  0
  2 24  1  0  0  0  0
  3 25  1  0  0  0  0
  3 26  1  0  0  0  0
  5 27  1  0  0  0  0
  6 28  1  0  0  0  0
  7 29  1  0  0  0  0
  8 30  1  0  0  0  0
  9 31  1  0  0  0  0
 10 32  1  0  0  0  0
 10 33  1  0  0  0  0
 15 34  1  0  0  0  0
 16 35  1  0  0  0  0
 17 36  1  0  0  0  0
 18 37  1  0  0  0  0
 19 38  1  0  0  0  0
 20 39  1  0  0  0  0
M  CHG  1   1  -1
M  END
> <OPENEYE_ISO_SMILES>
[B-]1([C@@H](Cc2cccc(c2O1)C(=O)O)SCc3ccccc3)(O)O

> <OPENEYE_INCHI>
InChI=1S/C16H16BO5S/c18-16(19)13-8-4-7-12-9-14(17(20,21)22-15(12)13)23-10-11-5-2-1-3-6-11/h1-8,14,20-21H,9-10H2,(H,18,19)/q-1/t14-/m1/s1

> <OPENEYE_INCHIKEY>
NCOFNSDHLWCKKT-CQSZACIVSA-N

> <FORMULA>
C16H16BO5S-

$$$$
