KRT
  -OEChem-07282321083D

 23 23  0     0  0  0  0  0  0999 V2000
   -4.0350   -1.5830    0.0020 O   0  0  0  0  0  0  0  0  0  0  0  0
   -3.9780   -0.3680   -0.0030 C   0  0  0  0  0  0  0  0  0  0  0  0
   -5.1140    0.3600   -0.0020 O   0  0  0  0  0  0  0  0  0  0  0  0
   -2.6790    0.3030   -0.0030 C   0  0  0  0  0  0  0  0  0  0  0  0
   -1.5430   -0.4250    0.0020 C   0  0  0  0  0  0  0  0  0  0  0  0
   -0.2360    0.2510    0.0010 C   0  0  0  0  0  0  0  0  0  0  0  0
   -0.1680    1.6490    0.0020 C   0  0  0  0  0  0  0  0  0  0  0  0
    1.0590    2.2820    0.0010 C   0  0  0  0  0  0  0  0  0  0  0  0
    2.2250    1.5410   -0.0000 C   0  0  0  0  0  0  0  0  0  0  0  0
    2.1720    0.1470   -0.0000 C   0  0  0  0  0  0  0  0  0  0  0  0
    3.5000   -0.6900   -0.0010 B   0  0  0  0  0  0  0  0  0  0  0  0
    4.7560   -0.0280   -0.0020 O   0  0  0  0  0  0  0  0  0  0  0  0
    3.4450   -2.1090   -0.0010 O   0  0  0  0  0  0  0  0  0  0  0  0
    0.9410   -0.5000    0.0060 C   0  0  0  0  0  0  0  0  0  0  0  0
   -5.9220   -0.1710    0.0020 H   0  0  0  0  0  0  0  0  0  0  0  0
   -2.6290    1.3820   -0.0070 H   0  0  0  0  0  0  0  0  0  0  0  0
   -1.5940   -1.5040    0.0060 H   0  0  0  0  0  0  0  0  0  0  0  0
   -1.0760    2.2330    0.0030 H   0  0  0  0  0  0  0  0  0  0  0  0
    1.1070    3.3610    0.0010 H   0  0  0  0  0  0  0  0  0  0  0  0
    3.1810    2.0430   -0.0020 H   0  0  0  0  0  0  0  0  0  0  0  0
    5.5160   -0.6270   -0.0030 H   0  0  0  0  0  0  0  0  0  0  0  0
    4.3130   -2.5360   -0.0020 H   0  0  0  0  0  0  0  0  0  0  0  0
    0.8960   -1.5790    0.0100 H   0  0  0  0  0  0  0  0  0  0  0  0
  1  2  2  0  0  0  0
  2  3  1  0  0  0  0
  2  4  1  0  0  0  0
  4  5  2  0  0  0  0
  5  6  1  0  0  0  0
  6 14  2  0  0  0  0
  6  7  1  0  0  0  0
 10 14  1  0  0  0  0
  7  8  2  0  0  0  0
 11 13  1  0  0  0  0
 10 11  1  0  0  0  0
  9 10  2  0  0  0  0
  8  9  1  0  0  0  0
 11 12  1  0  0  0  0
  3 15  1  0  0  0  0
  4 16  1  0  0  0  0
  5 17  1  0  0  0  0
  7 18  1  0  0  0  0
  8 19  1  0  0  0  0
  9 20  1  0  0  0  0
 12 21  1  0  0  0  0
 13 22  1  0  0  0  0
 14 23  1  0  0  0  0
M  END
> <OPENEYE_ISO_SMILES>
B(c1cccc(c1)/C=C/C(=O)O)(O)O

> <OPENEYE_INCHI>
InChI=1S/C9H9BO4/c11-9(12)5-4-7-2-1-3-8(6-7)10(13)14/h1-6,13-14H,(H,11,12)/b5-4+

> <OPENEYE_INCHIKEY>
QCHIEOGZUMAQKI-SNAWJCMRSA-N

> <FORMULA>
C9H9BO4

$$$$
