L4C
  -OEChem-07282321083D

 34 33  0     1  0  0  0  0  0999 V2000
    3.6200   -0.2130    5.7170 O   0  0  0  0  0  0  0  0  0  0  0  0
    2.2720   -0.0580    5.6230 C   0  0  0  0  0  0  0  0  0  0  0  0
    1.4780   -0.7660    6.2260 O   0  0  0  0  0  0  0  0  0  0  0  0
    1.9140    1.0810    4.6930 C   0  0  0  0  0  0  0  0  0  0  0  0
    0.4080    1.2320    4.4860 C   0  0  0  0  0  0  0  0  0  0  0  0
    0.1040    2.3460    3.5090 C   0  0  0  0  0  0  0  0  0  0  0  0
   -0.1800    3.6980    4.0920 C   0  0  0  0  0  0  0  0  0  0  0  0
    0.6940    4.5150    4.2960 O   0  0  0  0  0  0  0  0  0  0  0  0
   -1.4980    3.8250    4.2950 O   0  0  0  0  0  0  0  0  0  0  0  0
    0.0920    2.2740    2.2170 N   0  0  0  0  0  0  0  0  0  0  0  0
    0.3930    0.9770    1.7850 O   0  0  0  0  0  0  0  0  0  0  0  0
    0.3640    0.9650    0.3660 C   0  0  0  0  0  0  0  0  0  0  0  0
    0.6870   -0.4360   -0.1300 C   0  0  2  0  0  0  0  0  0  0  0  0
   -0.2390   -1.4120    0.3900 N   0  0  0  0  0  0  0  0  0  0  0  0
   -1.3990   -1.7820   -0.2680 C   0  0  0  0  0  0  0  0  0  0  0  0
   -2.2070   -2.8100    0.4520 C   0  0  0  0  0  0  0  0  0  0  0  0
   -1.7920   -1.3510   -1.3450 O   0  0  0  0  0  0  0  0  0  0  0  0
    2.0750   -0.8500    0.3150 C   0  0  0  0  0  0  0  0  0  0  0  0
    2.3450   -1.3680    1.3910 O   0  0  0  0  0  0  0  0  0  0  0  0
    3.0190   -0.5340   -0.6100 O   0  0  0  0  0  0  0  0  0  0  0  0
    3.9130   -0.9400    6.3080 H   0  0  0  0  0  0  0  0  0  0  0  0
    2.3530    2.0030    5.0890 H   0  0  0  0  0  0  0  0  0  0  0  0
    2.3750    0.8550    3.7240 H   0  0  0  0  0  0  0  0  0  0  0  0
   -0.1170    1.4130    5.4300 H   0  0  0  0  0  0  0  0  0  0  0  0
    0.0000    0.3010    4.0780 H   0  0  0  0  0  0  0  0  0  0  0  0
   -1.7360    4.7060    4.6540 H   0  0  0  0  0  0  0  0  0  0  0  0
   -0.6390    1.2730    0.0490 H   0  0  0  0  0  0  0  0  0  0  0  0
    1.0850    1.7010   -0.0060 H   0  0  0  0  0  0  0  0  0  0  0  0
    0.6060   -0.5100   -1.2200 H   0  0  0  0  0  0  0  0  0  0  0  0
   -0.0300   -1.8500    1.2830 H   0  0  0  0  0  0  0  0  0  0  0  0
   -3.2250   -2.4570    0.6860 H   0  0  0  0  0  0  0  0  0  0  0  0
   -2.3460   -3.7270   -0.1420 H   0  0  0  0  0  0  0  0  0  0  0  0
   -1.7900   -3.1480    1.4140 H   0  0  0  0  0  0  0  0  0  0  0  0
    3.9420   -0.7510   -0.3560 H   0  0  0  0  0  0  0  0  0  0  0  0
  1  2  1  0  0  0  0
  1 21  1  0  0  0  0
  2  3  2  0  0  0  0
  2  4  1  0  0  0  0
  4  5  1  0  0  0  0
  4 22  1  0  0  0  0
  4 23  1  0  0  0  0
  5  6  1  0  0  0  0
  5 24  1  0  0  0  0
  5 25  1  0  0  0  0
  6  7  1  0  0  0  0
  6 10  2  0  0  0  0
  7  8  2  0  0  0  0
  7  9  1  0  0  0  0
  9 26  1  0  0  0  0
 10 11  1  0  0  0  0
 11 12  1  0  0  0  0
 12 13  1  0  0  0  0
 12 27  1  0  0  0  0
 12 28  1  0  0  0  0
 13 14  1  0  0  0  0
 13 18  1  0  0  0  0
 13 29  1  0  0  0  0
 14 15  1  0  0  0  0
 14 30  1  0  0  0  0
 15 16  1  0  0  0  0
 15 17  2  0  0  0  0
 16 32  1  0  0  0  0
 16 33  1  0  0  0  0
 16 31  1  0  0  0  0
 18 19  2  0  0  0  0
 18 20  1  0  0  0  0
 20 34  1  0  0  0  0
M  END
> <OPENEYE_ISO_SMILES>
CC(=O)N[C@@H](CO/N=C(\CCC(=O)O)/C(=O)O)C(=O)O

> <OPENEYE_INCHI>
InChI=1S/C10H14N2O8/c1-5(13)11-7(10(18)19)4-20-12-6(9(16)17)2-3-8(14)15/h7H,2-4H2,1H3,(H,11,13)(H,14,15)(H,16,17)(H,18,19)/b12-6+/t7-/m0/s1

> <OPENEYE_INCHIKEY>
ULEFFWARYSNNRF-NYYVKIQXSA-N

> <FORMULA>
C10H14N2O8

$$$$
