LBX
  -OEChem-07282321083D

 25 24  0     1  0  0  0  0  0999 V2000
   -1.1680    0.3460   -0.2430 C   0  0  0  0  0  0  0  0  0  0  0  0
   -3.2300    1.7220   -0.2770 C   0  0  0  0  0  0  0  0  0  0  0  0
    4.0430    1.3600    0.0260 C   0  0  0  0  0  0  0  0  0  0  0  0
    3.4830    0.0010   -0.3030 C   0  0  0  0  0  0  0  0  0  0  0  0
    2.1450   -0.1680    0.3710 C   0  0  0  0  0  0  0  0  0  0  0  0
   -0.1860   -0.6400    0.3340 C   0  0  1  0  0  0  0  0  0  0  0  0
   -0.6890   -2.0420    0.1070 C   0  0  0  0  0  0  0  0  0  0  0  0
   -2.4120    0.7090    0.5260 C   0  0  0  0  0  0  0  0  0  0  0  0
    1.1140   -0.4760   -0.3210 N   0  0  0  0  0  0  0  0  0  0  0  0
    5.1420    1.4570    0.5170 O   0  0  0  0  0  0  0  0  0  0  0  0
   -1.8700   -2.4220    0.6190 O   0  0  0  0  0  0  0  0  0  0  0  0
   -0.0300   -2.8240   -0.5370 O   0  0  0  0  0  0  0  0  0  0  0  0
   -0.9550    0.8500   -1.3200 O   0  0  0  0  0  0  0  0  0  0  0  0
   -4.4100    2.0660    0.4520 O   0  0  0  0  0  0  0  0  0  0  0  0
   -2.6340    2.6180   -0.4470 H   0  0  0  0  0  0  0  0  0  0  0  0
   -3.5100    1.2850   -1.2350 H   0  0  0  0  0  0  0  0  0  0  0  0
    3.4620    2.2480   -0.1760 H   0  0  0  0  0  0  0  0  0  0  0  0
    3.3590   -0.0900   -1.3820 H   0  0  0  0  0  0  0  0  0  0  0  0
    4.1680   -0.7700    0.0500 H   0  0  0  0  0  0  0  0  0  0  0  0
    2.0570   -0.0300    1.4390 H   0  0  0  0  0  0  0  0  0  0  0  0
   -0.0780   -0.4620    1.4040 H   0  0  0  0  0  0  0  0  0  0  0  0
   -3.0080   -0.1880    0.6960 H   0  0  0  0  0  0  0  0  0  0  0  0
   -2.1320    1.1460    1.4850 H   0  0  0  0  0  0  0  0  0  0  0  0
   -2.1510   -3.3310    0.4460 H   0  0  0  0  0  0  0  0  0  0  0  0
   -4.9790    2.7050    0.0020 H   0  0  0  0  0  0  0  0  0  0  0  0
  3 10  2  0  0  0  0
  2 14  1  0  0  0  0
  1 13  2  0  0  0  0
  3  4  1  0  0  0  0
  4  5  1  0  0  0  0
  2  8  1  0  0  0  0
  5  9  2  0  0  0  0
  6  9  1  0  0  0  0
  1  8  1  0  0  0  0
  1  6  1  0  0  0  0
  6  7  1  0  0  0  0
  7 12  2  0  0  0  0
  7 11  1  0  0  0  0
  2 15  1  0  0  0  0
  2 16  1  0  0  0  0
  3 17  1  0  0  0  0
  4 18  1  0  0  0  0
  4 19  1  0  0  0  0
  5 20  1  0  0  0  0
  6 21  1  0  0  0  0
  8 22  1  0  0  0  0
  8 23  1  0  0  0  0
 11 24  1  0  0  0  0
 14 25  1  0  0  0  0
M  END
> <OPENEYE_ISO_SMILES>
C(CO)C(=O)[C@@H](C(=O)O)/N=C/CC=O

> <OPENEYE_INCHI>
InChI=1S/C8H11NO5/c10-4-1-3-9-7(8(13)14)6(12)2-5-11/h3-4,7,11H,1-2,5H2,(H,13,14)/b9-3+/t7-/m0/s1

> <OPENEYE_INCHIKEY>
PXXGDOCPYMGSFI-FHYFFISESA-N

> <FORMULA>
C8H11NO5

$$$$
