LCE
  -OEChem-07282321083D

 23 24  0     1  0  0  0  0  0999 V2000
    2.9960    2.4210   -0.9490 C   0  0  0  0  0  0  0  0  0  0  0  0
    3.7220   -1.3930    0.6260 O   0  0  0  0  0  0  0  0  0  0  0  0
    2.2350   -2.1860   -0.8030 O   0  0  0  0  0  0  0  0  0  0  0  0
   -1.3530   -1.2270    2.0430 O   0  0  0  0  0  0  0  0  0  0  0  0
   -2.8080   -1.2200   -1.2530 Cl  0  0  0  0  0  0  0  0  0  0  0  0
   -2.8980    1.2400    0.4670 Cl  0  0  0  0  0  0  0  0  0  0  0  0
    2.6720    1.0650   -0.6370 O   0  0  0  0  0  0  0  0  0  0  0  0
    0.1930    1.7450    0.1870 S   0  0  0  0  0  0  0  0  0  0  0  0
    2.4830   -1.4380    0.1130 C   0  0  0  0  0  0  0  0  0  0  0  0
    1.8070    0.9180    0.4910 C   0  0  1  0  0  0  0  0  0  0  0  0
   -0.5390    0.3280   -0.7270 C   0  0  1  0  0  0  0  0  0  0  0  0
    1.3990   -0.5570    0.6800 C   0  0  1  0  0  0  0  0  0  0  0  0
    0.0810   -0.8940   -0.0070 C   0  0  1  0  0  0  0  0  0  0  0  0
   -1.8930   -0.1200   -0.1570 C   0  0  0  0  0  0  0  0  0  0  0  0
   -1.1170   -0.8470    0.9210 C   0  0  0  0  0  0  0  0  0  0  0  0
    3.6560    2.4470   -1.8160 H   0  0  0  0  0  0  0  0  0  0  0  0
    2.0820    2.9710   -1.1710 H   0  0  0  0  0  0  0  0  0  0  0  0
    3.4980    2.8800   -0.0970 H   0  0  0  0  0  0  0  0  0  0  0  0
    2.2790    1.3100    1.3920 H   0  0  0  0  0  0  0  0  0  0  0  0
   -0.4470    0.3700   -1.8120 H   0  0  0  0  0  0  0  0  0  0  0  0
    1.3010   -0.7620    1.7460 H   0  0  0  0  0  0  0  0  0  0  0  0
    0.1290   -1.7970   -0.6150 H   0  0  0  0  0  0  0  0  0  0  0  0
    4.3830   -1.9760    0.2300 H   0  0  0  0  0  0  0  0  0  0  0  0
  1  7  1  0  0  0  0
  1 16  1  0  0  0  0
  1 17  1  0  0  0  0
  1 18  1  0  0  0  0
  2  9  1  0  0  0  0
  3  9  2  0  0  0  0
  4 15  2  0  0  0  0
  5 14  1  0  0  0  0
  6 14  1  0  0  0  0
  7 10  1  0  0  0  0
  8 10  1  0  0  0  0
  8 11  1  0  0  0  0
  9 12  1  0  0  0  0
 10 12  1  0  0  0  0
 10 19  1  0  0  0  0
 11 13  1  0  0  0  0
 11 14  1  0  0  0  0
 11 20  1  0  0  0  0
 12 13  1  0  0  0  0
 12 21  1  0  0  0  0
 13 15  1  0  0  0  0
 13 22  1  0  0  0  0
 14 15  1  0  0  0  0
  2 23  1  0  0  0  0
M  END
> <OPENEYE_ISO_SMILES>
CO[C@@H]1[C@@H]([C@@H]2[C@H](S1)C(C2=O)(Cl)Cl)C(=O)O

> <OPENEYE_INCHI>
InChI=1S/C8H8Cl2O4S/c1-14-7-3(6(12)13)2-4(11)8(9,10)5(2)15-7/h2-3,5,7H,1H3,(H,12,13)/t2-,3-,5-,7-/m0/s1

> <OPENEYE_INCHIKEY>
PELFTKQNZKVHIO-NXTKUWPGSA-N

> <FORMULA>
C8H8Cl2O4S

$$$$
