LD0
  -OEChem-07282321083D

 46 47  0     1  0  0  0  0  0999 V2000
   -0.4910   -1.6480   -1.5100 C   0  0  0  0  0  0  0  0  0  0  0  0
   -1.2500   -0.5910    0.6010 C   0  0  2  0  0  0  0  0  0  0  0  0
   -3.9810    0.7320    0.4210 C   0  0  2  0  0  0  0  0  0  0  0  0
   -2.8360    1.7470    0.5210 C   0  0  0  0  0  0  0  0  0  0  0  0
    5.9240   -3.4770   -0.3110 C   0  0  0  0  0  0  0  0  0  0  0  0
    3.5810   -0.7700    0.0420 C   0  0  0  0  0  0  0  0  0  0  0  0
    3.6340    0.6980    0.2100 C   0  0  0  0  0  0  0  0  0  0  0  0
    4.7820    1.3960    0.1120 C   0  0  0  0  0  0  0  0  0  0  0  0
    2.7160    2.7060    0.5910 C   0  0  0  0  0  0  0  0  0  0  0  0
    2.2740   -1.4690    0.0350 C   0  0  0  0  0  0  0  0  0  0  0  0
   -0.1600   -1.4420   -0.0540 C   0  0  2  0  0  0  0  0  0  0  0  0
   -3.6070   -0.5430    1.1790 C   0  0  1  0  0  0  0  0  0  0  0  0
   -4.2330    0.3940   -1.0500 C   0  0  0  0  0  0  0  0  0  0  0  0
   -4.8230   -1.4250    1.2940 C   0  0  0  0  0  0  0  0  0  0  0  0
    4.6840   -1.4490   -0.1000 N   0  0  0  0  0  0  0  0  0  0  0  0
    2.5460    1.4280    0.4640 N   0  0  0  0  0  0  0  0  0  0  0  0
    1.7120    3.6220    0.8580 N   0  0  0  0  0  0  0  0  0  0  0  0
    1.1300   -0.7580    0.0620 N   0  0  0  0  0  0  0  0  0  0  0  0
   -2.5470   -1.2720    0.4800 N   0  0  0  0  0  0  0  0  0  0  0  0
    4.6430   -2.8640   -0.1530 O   0  0  0  0  0  0  0  0  0  0  0  0
    2.2350   -2.6830    0.0060 O   0  0  0  0  0  0  0  0  0  0  0  0
    0.2740   -1.2670   -2.3620 O   0  0  0  0  0  0  0  0  0  0  0  0
   -4.9640   -2.3600    0.5410 O   0  0  0  0  0  0  0  0  0  0  0  0
   -5.7490   -1.1740    2.2330 O   0  0  0  0  0  0  0  0  0  0  0  0
    4.4180    3.1000    0.3730 S   0  0  0  0  0  0  0  0  0  0  0  0
   -1.3520    1.0200   -0.2360 S   0  0  0  0  0  0  0  0  0  0  0  0
   -4.8250    1.8730   -1.9180 S   0  0  0  0  0  0  0  0  0  0  0  0
   -1.4110   -2.1400   -1.7900 H   0  0  0  0  0  0  0  0  0  0  0  0
   -1.0120   -0.4410    1.6550 H   0  0  0  0  0  0  0  0  0  0  0  0
   -4.8850    1.1610    0.8540 H   0  0  0  0  0  0  0  0  0  0  0  0
   -3.1080    2.6590   -0.0100 H   0  0  0  0  0  0  0  0  0  0  0  0
   -2.6430    1.9770    1.5690 H   0  0  0  0  0  0  0  0  0  0  0  0
    6.3780   -3.1340   -1.2400 H   0  0  0  0  0  0  0  0  0  0  0  0
    6.5630   -3.2050    0.5290 H   0  0  0  0  0  0  0  0  0  0  0  0
    5.8060   -4.5600   -0.3420 H   0  0  0  0  0  0  0  0  0  0  0  0
    5.7590    0.9820   -0.0920 H   0  0  0  0  0  0  0  0  0  0  0  0
   -0.1050   -2.4090    0.4460 H   0  0  0  0  0  0  0  0  0  0  0  0
   -3.2630   -0.2770    2.1790 H   0  0  0  0  0  0  0  0  0  0  0  0
   -3.3060    0.0510   -1.5080 H   0  0  0  0  0  0  0  0  0  0  0  0
   -4.9850   -0.3920   -1.1180 H   0  0  0  0  0  0  0  0  0  0  0  0
    1.9240    4.5650    0.9380 H   0  0  0  0  0  0  0  0  0  0  0  0
    0.7960    3.3210    0.9650 H   0  0  0  0  0  0  0  0  0  0  0  0
    1.1600    0.2070    0.1570 H   0  0  0  0  0  0  0  0  0  0  0  0
   -2.4880   -2.2240    0.8070 H   0  0  0  0  0  0  0  0  0  0  0  0
   -6.5110   -1.7680    2.2680 H   0  0  0  0  0  0  0  0  0  0  0  0
   -5.0010    1.4350   -3.1770 H   0  0  0  0  0  0  0  0  0  0  0  0
 14 23  2  0  0  0  0
 14 24  1  0  0  0  0
 12 14  1  0  0  0  0
 13 27  1  0  0  0  0
  3 12  1  0  0  0  0
 12 19  1  0  0  0  0
  3  4  1  0  0  0  0
  3 13  1  0  0  0  0
  4 26  1  0  0  0  0
  2 26  1  0  0  0  0
  2 19  1  0  0  0  0
  2 11  1  0  0  0  0
  9 17  1  0  0  0  0
  9 25  1  0  0  0  0
  9 16  2  0  0  0  0
 11 18  1  0  0  0  0
  1 11  1  0  0  0  0
  8 25  1  0  0  0  0
  7 16  1  0  0  0  0
 10 18  1  0  0  0  0
  1 22  2  0  0  0  0
  7  8  2  0  0  0  0
  6  7  1  0  0  0  0
  6 10  1  0  0  0  0
 10 21  2  0  0  0  0
  6 15  2  0  0  0  0
 15 20  1  0  0  0  0
  5 20  1  0  0  0  0
  1 28  1  0  0  0  0
  2 29  1  0  0  0  0
  3 30  1  0  0  0  0
  4 31  1  0  0  0  0
  4 32  1  0  0  0  0
  5 33  1  0  0  0  0
  5 34  1  0  0  0  0
  5 35  1  0  0  0  0
  8 36  1  0  0  0  0
 11 37  1  0  0  0  0
 12 38  1  0  0  0  0
 13 39  1  0  0  0  0
 13 40  1  0  0  0  0
 17 41  1  0  0  0  0
 17 42  1  0  0  0  0
 18 43  1  0  0  0  0
 19 44  1  0  0  0  0
 24 45  1  0  0  0  0
 27 46  1  0  0  0  0
M  END
> <OPENEYE_ISO_SMILES>
CO/N=C(/c1csc(n1)N)\C(=O)N[C@H](C=O)[C@@H]2N[C@@H]([C@@H](CS2)CS)C(=O)O

> <OPENEYE_INCHI>
InChI=1S/C14H19N5O5S3/c1-24-19-10(8-5-27-14(15)17-8)11(21)16-7(2-20)12-18-9(13(22)23)6(3-25)4-26-12/h2,5-7,9,12,18,25H,3-4H2,1H3,(H2,15,17)(H,16,21)(H,22,23)/b19-10-/t6-,7-,9+,12-/m1/s1

> <OPENEYE_INCHIKEY>
KKQVBXSQHHBKNE-AZYSTIKISA-N

> <FORMULA>
C14H19N5O5S3

$$$$
