LK5
  -OEChem-07282321083D

 49 50  0     1  0  0  0  0  0999 V2000
    7.0590   -0.9600   -1.1830 C   0  0  0  0  0  0  0  0  0  0  0  0
    6.0530   -0.4510   -0.1480 C   0  0  0  0  0  0  0  0  0  0  0  0
    4.6310   -0.7040   -0.6510 C   0  0  0  0  0  0  0  0  0  0  0  0
    3.6260   -0.1950    0.3840 C   0  0  0  0  0  0  0  0  0  0  0  0
    2.2970   -0.4310   -0.0860 O   0  0  0  0  0  0  0  0  0  0  0  0
    1.2760    0.0100    0.8110 C   0  0  2  0  0  0  0  0  0  0  0  0
    0.9030   -1.1230    1.7820 C   0  0  0  0  0  0  0  0  0  0  0  0
    0.2110   -2.2570    1.0300 C   0  0  0  0  0  0  0  0  0  0  0  0
   -1.1130   -1.7910    0.4150 C   0  0  0  0  0  0  0  0  0  0  0  0
   -0.8050   -0.7330   -0.6470 C   0  0  2  0  0  0  0  0  0  0  0  0
    0.0190    0.3460    0.0410 C   0  0  0  0  0  0  0  0  0  0  0  0
   -0.5610    1.5140   -0.1500 C   0  0  0  0  0  0  0  0  0  0  0  0
    0.0150    2.7910    0.3110 C   0  0  0  0  0  0  0  0  0  0  0  0
    1.0770    2.8010    0.9010 O   0  0  0  0  0  0  0  0  0  0  0  0
   -0.6370    3.9470    0.0780 O   0  0  0  0  0  0  0  0  0  0  0  0
   -1.7730    1.4210   -0.8340 N   0  0  0  0  0  0  0  0  0  0  0  0
   -2.0660    0.0040   -1.1090 C   0  0  2  0  0  0  0  0  0  0  0  0
   -3.2820   -0.4580   -0.3050 C   0  0  1  0  0  0  0  0  0  0  0  0
   -4.4910    0.4090   -0.6640 C   0  0  0  0  0  0  0  0  0  0  0  0
   -5.6740    0.0300    0.2290 C   0  0  0  0  0  0  0  0  0  0  0  0
   -3.5830   -1.8980   -0.6310 C   0  0  0  0  0  0  0  0  0  0  0  0
   -3.6830   -2.7110    0.2570 O   0  0  0  0  0  0  0  0  0  0  0  0
    8.0720   -0.7800   -0.8240 H   0  0  0  0  0  0  0  0  0  0  0  0
    6.9120   -2.0290   -1.3370 H   0  0  0  0  0  0  0  0  0  0  0  0
    6.9080   -0.4330   -2.1250 H   0  0  0  0  0  0  0  0  0  0  0  0
    6.2040   -0.9780    0.7950 H   0  0  0  0  0  0  0  0  0  0  0  0
    6.2000    0.6180    0.0060 H   0  0  0  0  0  0  0  0  0  0  0  0
    4.4800   -0.1770   -1.5940 H   0  0  0  0  0  0  0  0  0  0  0  0
    4.4840   -1.7730   -0.8050 H   0  0  0  0  0  0  0  0  0  0  0  0
    3.7760   -0.7220    1.3260 H   0  0  0  0  0  0  0  0  0  0  0  0
    3.7720    0.8740    0.5380 H   0  0  0  0  0  0  0  0  0  0  0  0
    1.6190    0.8820    1.3680 H   0  0  0  0  0  0  0  0  0  0  0  0
    1.8070   -1.5040    2.2570 H   0  0  0  0  0  0  0  0  0  0  0  0
    0.2310   -0.7350    2.5480 H   0  0  0  0  0  0  0  0  0  0  0  0
    0.8680   -2.6110    0.2350 H   0  0  0  0  0  0  0  0  0  0  0  0
    0.0150   -3.0770    1.7210 H   0  0  0  0  0  0  0  0  0  0  0  0
   -1.6220   -2.6370   -0.0460 H   0  0  0  0  0  0  0  0  0  0  0  0
   -1.7460   -1.3590    1.1910 H   0  0  0  0  0  0  0  0  0  0  0  0
   -0.2750   -1.1710   -1.4920 H   0  0  0  0  0  0  0  0  0  0  0  0
   -0.2210    4.7590    0.4000 H   0  0  0  0  0  0  0  0  0  0  0  0
   -2.3350    2.1710   -1.0870 H   0  0  0  0  0  0  0  0  0  0  0  0
   -2.2300   -0.1520   -2.1750 H   0  0  0  0  0  0  0  0  0  0  0  0
   -3.0710   -0.3630    0.7610 H   0  0  0  0  0  0  0  0  0  0  0  0
   -4.2430    1.4590   -0.5120 H   0  0  0  0  0  0  0  0  0  0  0  0
   -4.7570    0.2460   -1.7080 H   0  0  0  0  0  0  0  0  0  0  0  0
   -5.4080    0.1920    1.2730 H   0  0  0  0  0  0  0  0  0  0  0  0
   -6.5350    0.6470   -0.0270 H   0  0  0  0  0  0  0  0  0  0  0  0
   -5.9220   -1.0210    0.0760 H   0  0  0  0  0  0  0  0  0  0  0  0
   -3.7080   -2.2040   -1.6590 H   0  0  0  0  0  0  0  0  0  0  0  0
  1  2  1  0  0  0  0
  1 23  1  0  0  0  0
  1 24  1  0  0  0  0
  1 25  1  0  0  0  0
  2  3  1  0  0  0  0
  2 26  1  0  0  0  0
  2 27  1  0  0  0  0
  3  4  1  0  0  0  0
  3 28  1  0  0  0  0
  3 29  1  0  0  0  0
  4  5  1  0  0  0  0
  4 30  1  0  0  0  0
  4 31  1  0  0  0  0
  5  6  1  0  0  0  0
  6  7  1  0  0  0  0
  6 11  1  0  0  0  0
  6 32  1  0  0  0  0
  7  8  1  0  0  0  0
  7 33  1  0  0  0  0
  7 34  1  0  0  0  0
  8  9  1  0  0  0  0
  8 35  1  0  0  0  0
  8 36  1  0  0  0  0
  9 10  1  0  0  0  0
  9 37  1  0  0  0  0
  9 38  1  0  0  0  0
 10 17  1  0  0  0  0
 10 11  1  0  0  0  0
 10 39  1  0  0  0  0
 11 12  2  0  0  0  0
 12 16  1  0  0  0  0
 12 13  1  0  0  0  0
 13 14  2  0  0  0  0
 13 15  1  0  0  0  0
 15 40  1  0  0  0  0
 16 17  1  0  0  0  0
 16 41  1  0  0  0  0
 17 18  1  0  0  0  0
 17 42  1  0  0  0  0
 18 21  1  0  0  0  0
 18 19  1  0  0  0  0
 18 43  1  0  0  0  0
 19 20  1  0  0  0  0
 19 44  1  0  0  0  0
 19 45  1  0  0  0  0
 20 46  1  0  0  0  0
 20 47  1  0  0  0  0
 20 48  1  0  0  0  0
 21 22  2  0  0  0  0
 21 49  1  0  0  0  0
M  END
> <OPENEYE_ISO_SMILES>
CCCCO[C@@H]1CCC[C@@H]2C1=C(N[C@@H]2[C@@H](CC)C=O)C(=O)O

> <OPENEYE_INCHI>
InChI=1S/C17H27NO4/c1-3-5-9-22-13-8-6-7-12-14(13)16(17(20)21)18-15(12)11(4-2)10-19/h10-13,15,18H,3-9H2,1-2H3,(H,20,21)/t11-,12+,13+,15+/m0/s1

> <OPENEYE_INCHIKEY>
WRBRCIHZCYLBFW-KYEXWDHISA-N

> <FORMULA>
C17H27NO4

$$$$
