LK7
  -OEChem-07282321083D

 38 39  0     1  0  0  0  0  0999 V2000
   -4.1740    0.7230   -1.5730 C   0  0  0  0  0  0  0  0  0  0  0  0
   -3.8610    0.3540   -0.1450 C   0  0  0  0  0  0  0  0  0  0  0  0
   -2.6430   -0.0850    0.1790 C   0  0  0  0  0  0  0  0  0  0  0  0
   -2.3400   -0.4430    1.5640 C   0  0  0  0  0  0  0  0  0  0  0  0
   -1.2320   -0.8420    1.8590 O   0  0  0  0  0  0  0  0  0  0  0  0
   -1.5810   -0.2120   -0.8820 C   0  0  2  0  0  0  0  0  0  0  0  0
   -0.8380   -1.4730   -0.7200 N   0  0  0  0  0  0  0  0  0  0  0  0
    0.4730   -1.1870   -0.3410 C   0  0  0  0  0  0  0  0  0  0  0  0
    1.4820   -2.2260   -0.0590 C   0  0  0  0  0  0  0  0  0  0  0  0
    2.6080   -1.9060    0.2670 O   0  0  0  0  0  0  0  0  0  0  0  0
    1.1540   -3.5290   -0.1630 O   0  0  0  0  0  0  0  0  0  0  0  0
    0.7200    0.1050   -0.2590 C   0  0  0  0  0  0  0  0  0  0  0  0
   -0.5150    0.8740   -0.7070 C   0  0  2  0  0  0  0  0  0  0  0  0
   -0.8600    1.8440    0.4240 C   0  0  0  0  0  0  0  0  0  0  0  0
    0.3780    2.6950    0.7250 C   0  0  0  0  0  0  0  0  0  0  0  0
    1.5200    1.8390    1.2660 C   0  0  0  0  0  0  0  0  0  0  0  0
    1.9690    0.8190    0.2060 C   0  0  2  0  0  0  0  0  0  0  0  0
    2.5850    1.4940   -0.8930 O   0  0  0  0  0  0  0  0  0  0  0  0
    4.0050    1.6090   -0.7820 C   0  0  0  0  0  0  0  0  0  0  0  0
   -3.5100    1.5260   -1.8940 H   0  0  0  0  0  0  0  0  0  0  0  0
   -4.0290   -0.1470   -2.2130 H   0  0  0  0  0  0  0  0  0  0  0  0
   -5.2090    1.0570   -1.6430 H   0  0  0  0  0  0  0  0  0  0  0  0
   -4.6220    0.4450    0.6150 H   0  0  0  0  0  0  0  0  0  0  0  0
   -3.1010   -0.3520    2.3250 H   0  0  0  0  0  0  0  0  0  0  0  0
   -2.0260   -0.1540   -1.8760 H   0  0  0  0  0  0  0  0  0  0  0  0
   -1.2030   -2.3620   -0.8560 H   0  0  0  0  0  0  0  0  0  0  0  0
    1.8490   -4.1730    0.0310 H   0  0  0  0  0  0  0  0  0  0  0  0
   -0.3330    1.4000   -1.6450 H   0  0  0  0  0  0  0  0  0  0  0  0
   -1.6840    2.4890    0.1170 H   0  0  0  0  0  0  0  0  0  0  0  0
   -1.1460    1.2830    1.3140 H   0  0  0  0  0  0  0  0  0  0  0  0
    0.7040    3.1880   -0.1910 H   0  0  0  0  0  0  0  0  0  0  0  0
    0.1190    3.4530    1.4640 H   0  0  0  0  0  0  0  0  0  0  0  0
    2.3610    2.4820    1.5280 H   0  0  0  0  0  0  0  0  0  0  0  0
    1.1840    1.3080    2.1570 H   0  0  0  0  0  0  0  0  0  0  0  0
    2.6660    0.1050    0.6450 H   0  0  0  0  0  0  0  0  0  0  0  0
    4.2560    2.1670    0.1200 H   0  0  0  0  0  0  0  0  0  0  0  0
    4.4470    0.6140   -0.7280 H   0  0  0  0  0  0  0  0  0  0  0  0
    4.3970    2.1330   -1.6540 H   0  0  0  0  0  0  0  0  0  0  0  0
  1  2  1  0  0  0  0
  1 20  1  0  0  0  0
  1 21  1  0  0  0  0
  1 22  1  0  0  0  0
  2  3  2  0  0  0  0
  2 23  1  0  0  0  0
  3  4  1  0  0  0  0
  3  6  1  0  0  0  0
  4  5  2  0  0  0  0
  4 24  1  0  0  0  0
  6 13  1  0  0  0  0
  6  7  1  0  0  0  0
  6 25  1  0  0  0  0
  7  8  1  0  0  0  0
  7 26  1  0  0  0  0
  8 12  2  0  0  0  0
  8  9  1  0  0  0  0
  9 10  2  0  0  0  0
  9 11  1  0  0  0  0
 11 27  1  0  0  0  0
 12 17  1  0  0  0  0
 12 13  1  0  0  0  0
 13 14  1  0  0  0  0
 13 28  1  0  0  0  0
 14 15  1  0  0  0  0
 14 29  1  0  0  0  0
 14 30  1  0  0  0  0
 15 16  1  0  0  0  0
 15 31  1  0  0  0  0
 15 32  1  0  0  0  0
 16 17  1  0  0  0  0
 16 33  1  0  0  0  0
 16 34  1  0  0  0  0
 17 18  1  0  0  0  0
 17 35  1  0  0  0  0
 18 19  1  0  0  0  0
 19 36  1  0  0  0  0
 19 37  1  0  0  0  0
 19 38  1  0  0  0  0
M  END
> <OPENEYE_ISO_SMILES>
C/C=C(/C=O)\[C@H]1[C@H]2CCC[C@@H](C2=C(N1)C(=O)O)OC

> <OPENEYE_INCHI>
InChI=1S/C14H19NO4/c1-3-8(7-16)12-9-5-4-6-10(19-2)11(9)13(15-12)14(17)18/h3,7,9-10,12,15H,4-6H2,1-2H3,(H,17,18)/b8-3-/t9-,10-,12-/m0/s1

> <OPENEYE_INCHIKEY>
ZYKSDPVHVMSKIL-IIHMJNQGSA-N

> <FORMULA>
C14H19NO4

$$$$
