LN1
  -OEChem-07282321083D

 56 58  0     1  0  0  0  0  0999 V2000
   -7.0950    2.1990   -0.0830 O   0  0  0  0  0  0  0  0  0  0  0  0
   -5.9290    1.9150   -0.2650 C   0  0  0  0  0  0  0  0  0  0  0  0
   -5.4710    0.6010   -0.0030 C   0  0  0  0  0  0  0  0  0  0  0  0
   -6.2520   -0.4860    0.4720 C   0  0  0  0  0  0  0  0  0  0  0  0
   -5.4210   -1.5640    0.5840 C   0  0  0  0  0  0  0  0  0  0  0  0
   -5.6560   -2.8960    1.0050 C   0  0  0  0  0  0  0  0  0  0  0  0
   -4.6280   -3.7800    1.0190 C   0  0  0  0  0  0  0  0  0  0  0  0
   -3.3400   -3.3670    0.6160 C   0  0  0  0  0  0  0  0  0  0  0  0
   -3.1190   -2.1030    0.2170 C   0  0  0  0  0  0  0  0  0  0  0  0
   -4.1460   -1.1830    0.1930 N   0  0  0  0  0  0  0  0  0  0  0  0
   -4.1690    0.1260   -0.1690 C   0  0  0  0  0  0  0  0  0  0  0  0
   -3.0900    0.8620   -0.6210 N   0  0  0  0  0  0  0  0  0  0  0  0
   -1.8390    0.1040   -0.4780 C   0  0  1  0  0  0  0  0  0  0  0  0
   -1.6670   -0.8100   -1.6640 C   0  0  0  0  0  0  0  0  0  0  0  0
   -0.5880   -1.6040   -1.7480 O   0  0  0  0  0  0  0  0  0  0  0  0
   -2.5000   -0.8280   -2.5390 O   0  0  0  0  0  0  0  0  0  0  0  0
   -0.6600    1.0760   -0.4070 C   0  0  2  0  0  0  0  0  0  0  0  0
   -0.7900    2.0760    1.1000 S   0  0  2  0  0  0  0  0  0  0  0  0
   -0.7560    1.0330    2.2080 O   0  0  0  0  0  0  0  0  0  0  0  0
   -2.1030    2.6090    1.2030 O   0  0  0  0  0  0  0  0  0  0  0  0
   -0.6800    1.9930   -1.6320 C   0  0  0  0  0  0  0  0  0  0  0  0
    0.6510    0.2860   -0.3830 C   0  0  0  0  0  0  0  0  0  0  0  0
    1.7700    1.2080   -0.3160 O   0  0  0  0  0  0  0  0  0  0  0  0
    3.0000    0.6720   -0.2870 C   0  0  0  0  0  0  0  0  0  0  0  0
    3.1370   -0.5280   -0.3180 O   0  0  0  0  0  0  0  0  0  0  0  0
    4.2110    1.5670   -0.2180 C   0  0  0  0  0  0  0  0  0  0  0  0
    5.4590    0.7220   -0.1980 C   0  0  0  0  0  0  0  0  0  0  0  0
    5.9840    0.2960    1.0080 C   0  0  0  0  0  0  0  0  0  0  0  0
    6.0740    0.3710   -1.3850 C   0  0  0  0  0  0  0  0  0  0  0  0
    7.2180   -0.4040   -1.3720 C   0  0  0  0  0  0  0  0  0  0  0  0
    7.7530   -0.8290   -0.1670 C   0  0  0  0  0  0  0  0  0  0  0  0
    8.8800   -1.5910   -0.1520 O   0  0  0  0  0  0  0  0  0  0  0  0
    7.1320   -0.4800    1.0280 C   0  0  0  0  0  0  0  0  0  0  0  0
    7.6500   -0.9000    2.2140 O   0  0  0  0  0  0  0  0  0  0  0  0
   -5.2410    2.6630   -0.6310 H   0  0  0  0  0  0  0  0  0  0  0  0
   -7.3060   -0.4640    0.7030 H   0  0  0  0  0  0  0  0  0  0  0  0
   -6.6440   -3.2040    1.3120 H   0  0  0  0  0  0  0  0  0  0  0  0
   -4.7940   -4.7980    1.3380 H   0  0  0  0  0  0  0  0  0  0  0  0
   -2.5240   -4.0740    0.6290 H   0  0  0  0  0  0  0  0  0  0  0  0
   -2.1270   -1.8050   -0.0870 H   0  0  0  0  0  0  0  0  0  0  0  0
   -3.2270    1.1560   -1.5770 H   0  0  0  0  0  0  0  0  0  0  0  0
   -1.8770   -0.4890    0.4360 H   0  0  0  0  0  0  0  0  0  0  0  0
   -0.5210   -2.1720   -2.5270 H   0  0  0  0  0  0  0  0  0  0  0  0
   -0.8170    1.4040    3.0990 H   0  0  0  0  0  0  0  0  0  0  0  0
   -1.6130    2.5560   -1.6490 H   0  0  0  0  0  0  0  0  0  0  0  0
    0.1610    2.6850   -1.5810 H   0  0  0  0  0  0  0  0  0  0  0  0
   -0.6020    1.3920   -2.5370 H   0  0  0  0  0  0  0  0  0  0  0  0
    0.6650   -0.3670    0.4890 H   0  0  0  0  0  0  0  0  0  0  0  0
    0.7290   -0.3150   -1.2890 H   0  0  0  0  0  0  0  0  0  0  0  0
    4.2290    2.2220   -1.0890 H   0  0  0  0  0  0  0  0  0  0  0  0
    4.1660    2.1700    0.6890 H   0  0  0  0  0  0  0  0  0  0  0  0
    5.5000    0.5690    1.9340 H   0  0  0  0  0  0  0  0  0  0  0  0
    5.6580    0.7020   -2.3260 H   0  0  0  0  0  0  0  0  0  0  0  0
    7.6960   -0.6770   -2.3020 H   0  0  0  0  0  0  0  0  0  0  0  0
    9.6990   -1.0800   -0.1090 H   0  0  0  0  0  0  0  0  0  0  0  0
    7.3060   -1.7520    2.5130 H   0  0  0  0  0  0  0  0  0  0  0  0
  1  2  2  0  0  0  0
  2 35  1  0  0  0  0
  2  3  1  0  0  0  0
  3  4  1  0  0  0  0
  4 36  1  0  0  0  0
  4  5  2  0  0  0  0
  5  6  1  0  0  0  0
  6 37  1  0  0  0  0
  6  7  2  0  0  0  0
  7 38  1  0  0  0  0
  7  8  1  0  0  0  0
  8 39  1  0  0  0  0
  8  9  2  0  0  0  0
  9 10  1  0  0  0  0
  9 40  1  0  0  0  0
  5 10  1  0  0  0  0
  3 11  2  0  0  0  0
 10 11  1  0  0  0  0
 11 12  1  0  0  0  0
 12 41  1  0  0  0  0
 12 13  1  0  0  0  0
 13 14  1  0  0  0  0
 13 42  1  0  0  0  0
 14 15  1  0  0  0  0
 15 43  1  0  0  0  0
 14 16  2  0  0  0  0
 13 17  1  0  0  0  0
 17 21  1  0  0  0  0
 17 18  1  0  0  0  0
 18 19  1  0  0  0  0
 19 44  1  0  0  0  0
 18 20  2  0  0  0  0
 21 45  1  0  0  0  0
 21 46  1  0  0  0  0
 21 47  1  0  0  0  0
 17 22  1  0  0  0  0
 22 23  1  0  0  0  0
 22 48  1  0  0  0  0
 22 49  1  0  0  0  0
 23 24  1  0  0  0  0
 24 25  2  0  0  0  0
 24 26  1  0  0  0  0
 26 50  1  0  0  0  0
 26 51  1  0  0  0  0
 26 27  1  0  0  0  0
 27 29  1  0  0  0  0
 27 28  2  0  0  0  0
 28 52  1  0  0  0  0
 29 53  1  0  0  0  0
 29 30  2  0  0  0  0
 30 54  1  0  0  0  0
 30 31  1  0  0  0  0
 31 32  1  0  0  0  0
 32 55  1  0  0  0  0
 28 33  1  0  0  0  0
 31 33  2  0  0  0  0
 33 34  1  0  0  0  0
 34 56  1  0  0  0  0
M  END
> <OPENEYE_ISO_SMILES>
C[C@](COC(=O)Cc1ccc(c(c1)O)O)([C@H](C(=O)O)Nc2c(cc3n2cccc3)C=O)[S@@](=O)O

> <OPENEYE_INCHI>
InChI=1S/C22H22N2O9S/c1-22(34(31)32,12-33-18(28)9-13-5-6-16(26)17(27)8-13)19(21(29)30)23-20-14(11-25)10-15-4-2-3-7-24(15)20/h2-8,10-11,19,23,26-27H,9,12H2,1H3,(H,29,30)(H,31,32)/t19-,22-/m0/s1

> <OPENEYE_INCHIKEY>
DEOZLEGRVHDNKC-UGKGYDQZSA-N

> <FORMULA>
C22H22N2O9S

$$$$
