LOR
  -OEChem-07282321083D

 42 43  0     1  0  0  0  0  0999 V2000
    4.9650   -0.9180   -0.2430 Cl  0  0  0  0  0  0  0  0  0  0  0  0
   -0.0980    3.6560   -0.0560 C   0  0  0  0  0  0  0  0  0  0  0  0
   -1.0070    4.0960   -0.7180 O   0  0  0  0  0  0  0  0  0  0  0  0
   -0.0080    2.1750    0.2110 C   0  0  1  0  0  0  0  0  0  0  0  0
   -1.1350    1.4940   -0.4310 N   0  0  0  0  0  0  0  0  0  0  0  0
    1.3060    1.6340   -0.3570 C   0  0  1  0  0  0  0  0  0  0  0  0
    2.4790    2.2560    0.4020 C   0  0  0  0  0  0  0  0  0  0  0  0
    3.7620    1.5160    0.0020 C   0  0  0  0  0  0  0  0  0  0  0  0
    3.6580    0.0740    0.5050 C   0  0  1  0  0  0  0  0  0  0  0  0
    2.3220   -0.5010    0.1350 C   0  0  0  0  0  0  0  0  0  0  0  0
    2.1620   -1.9730    0.2000 C   0  0  0  0  0  0  0  0  0  0  0  0
    1.3250    0.1830   -0.2260 N   0  0  0  0  0  0  0  0  0  0  0  0
   -2.3190    1.4050    0.2050 C   0  0  0  0  0  0  0  0  0  0  0  0
   -2.4530    1.8890    1.3090 O   0  0  0  0  0  0  0  0  0  0  0  0
   -3.4790    0.7050   -0.4560 C   0  0  2  0  0  0  0  0  0  0  0  0
   -4.7340    1.1370    0.1730 N   0  0  0  0  0  0  0  0  0  0  0  0
   -3.3230   -0.7850   -0.2940 C   0  0  0  0  0  0  0  0  0  0  0  0
   -3.6840   -1.3930    0.8940 C   0  0  0  0  0  0  0  0  0  0  0  0
   -3.5410   -2.7600    1.0420 C   0  0  0  0  0  0  0  0  0  0  0  0
   -3.0370   -3.5190    0.0020 C   0  0  0  0  0  0  0  0  0  0  0  0
   -2.6770   -2.9110   -1.1860 C   0  0  0  0  0  0  0  0  0  0  0  0
   -2.8250   -1.5450   -1.3360 C   0  0  0  0  0  0  0  0  0  0  0  0
    3.0950   -2.6710    0.5430 O   0  0  0  0  0  0  0  0  0  0  0  0
    0.9820   -2.5370   -0.1220 O   0  0  0  0  0  0  0  0  0  0  0  0
    0.6530    4.3230    0.3420 H   0  0  0  0  0  0  0  0  0  0  0  0
   -0.0400    1.9970    1.2850 H   0  0  0  0  0  0  0  0  0  0  0  0
   -1.0280    1.1070   -1.3140 H   0  0  0  0  0  0  0  0  0  0  0  0
    1.3780    1.9000   -1.4120 H   0  0  0  0  0  0  0  0  0  0  0  0
    2.5660    3.3110    0.1420 H   0  0  0  0  0  0  0  0  0  0  0  0
    2.3160    2.1550    1.4750 H   0  0  0  0  0  0  0  0  0  0  0  0
    3.8660    1.5210   -1.0840 H   0  0  0  0  0  0  0  0  0  0  0  0
    4.6250    2.0040    0.4550 H   0  0  0  0  0  0  0  0  0  0  0  0
    3.7690    0.0600    1.5890 H   0  0  0  0  0  0  0  0  0  0  0  0
   -3.4980    0.9550   -1.5160 H   0  0  0  0  0  0  0  0  0  0  0  0
   -5.5310    0.7300   -0.2950 H   0  0  0  0  0  0  0  0  0  0  0  0
   -4.7410    0.9150    1.1570 H   0  0  0  0  0  0  0  0  0  0  0  0
   -4.0780   -0.8010    1.7060 H   0  0  0  0  0  0  0  0  0  0  0  0
   -3.8220   -3.2350    1.9700 H   0  0  0  0  0  0  0  0  0  0  0  0
   -2.9250   -4.5870    0.1180 H   0  0  0  0  0  0  0  0  0  0  0  0
   -2.2830   -3.5040   -1.9980 H   0  0  0  0  0  0  0  0  0  0  0  0
   -2.5470   -1.0710   -2.2660 H   0  0  0  0  0  0  0  0  0  0  0  0
    0.9260   -3.5010   -0.0650 H   0  0  0  0  0  0  0  0  0  0  0  0
  1  9  1  0  0  0  0
  2  3  2  0  0  0  0
  2  4  1  0  0  0  0
  2 25  1  0  0  0  0
  4  6  1  0  0  0  0
  4  5  1  0  0  0  0
  4 26  1  0  0  0  0
  5 13  1  0  0  0  0
  5 27  1  0  0  0  0
  6 12  1  0  0  0  0
  6  7  1  0  0  0  0
  6 28  1  0  0  0  0
  7  8  1  0  0  0  0
  7 29  1  0  0  0  0
  7 30  1  0  0  0  0
  8  9  1  0  0  0  0
  8 31  1  0  0  0  0
  8 32  1  0  0  0  0
  9 10  1  0  0  0  0
  9 33  1  0  0  0  0
 10 11  1  0  0  0  0
 10 12  2  0  0  0  0
 11 23  2  0  0  0  0
 11 24  1  0  0  0  0
 13 15  1  0  0  0  0
 13 14  2  0  0  0  0
 15 17  1  0  0  0  0
 15 16  1  0  0  0  0
 15 34  1  0  0  0  0
 16 35  1  0  0  0  0
 16 36  1  0  0  0  0
 17 18  2  0  0  0  0
 17 22  1  0  0  0  0
 18 19  1  0  0  0  0
 18 37  1  0  0  0  0
 19 20  2  0  0  0  0
 19 38  1  0  0  0  0
 20 21  1  0  0  0  0
 20 39  1  0  0  0  0
 21 22  2  0  0  0  0
 21 40  1  0  0  0  0
 22 41  1  0  0  0  0
 24 42  1  0  0  0  0
M  END
> <OPENEYE_ISO_SMILES>
c1ccc(cc1)[C@H](C(=O)N[C@H](C=O)[C@H]2CC[C@@H](C(=N2)C(=O)O)Cl)N

> <OPENEYE_INCHI>
InChI=1S/C16H18ClN3O4/c17-10-6-7-11(19-14(10)16(23)24)12(8-21)20-15(22)13(18)9-4-2-1-3-5-9/h1-5,8,10-13H,6-7,18H2,(H,20,22)(H,23,24)/t10-,11+,12+,13+/m0/s1

> <OPENEYE_INCHIKEY>
DRTWKGBDHBOYMS-UMSGYPCISA-N

> <FORMULA>
C16H18ClN3O4

$$$$
