LP0
  -OEChem-07282321083D

 42 42  0     0  0  0  0  0  0999 V2000
   -4.3990    2.0350   -1.4310 O   0  0  0  0  0  0  0  0  0  0  0  0
   -5.1230    1.1350   -0.3090 P   0  0  0  0  0  0  0  0  0  0  0  0
   -6.4510    1.8840    0.2060 O   0  0  0  0  0  0  0  0  0  0  0  0
   -5.4900   -0.1760   -0.8900 O   0  0  0  0  0  0  0  0  0  0  0  0
   -4.1190    0.9110    0.9290 O   0  0  0  0  0  0  0  0  0  0  0  0
   -2.9090    0.2540    0.5810 B   0  0  0  0  0  0  0  0  0  0  0  0
   -2.6770   -0.1410   -0.7630 O   0  0  0  0  0  0  0  0  0  0  0  0
   -1.8280   -0.0360    1.6820 C   0  0  0  0  0  0  0  0  0  0  0  0
   -0.6820   -0.7170    1.0740 N   0  0  0  0  0  0  0  0  0  0  0  0
    0.3870   -0.0050    0.6680 C   0  0  0  0  0  0  0  0  0  0  0  0
    0.3630    1.2090    0.7180 O   0  0  0  0  0  0  0  0  0  0  0  0
    1.5930   -0.7020    0.1610 C   0  0  0  0  0  0  0  0  0  0  0  0
    2.6640   -0.0210   -0.1320 N   0  0  0  0  0  0  0  0  0  0  0  0
    2.7160    1.3690    0.1370 O   0  0  0  0  0  0  0  0  0  0  0  0
    3.9490    1.9870   -0.2350 C   0  0  0  0  0  0  0  0  0  0  0  0
    3.8930    3.4570    0.0950 C   0  0  0  0  0  0  0  0  0  0  0  0
    4.9480    4.2440   -0.1690 O   0  0  0  0  0  0  0  0  0  0  0  0
    2.8990    3.9260    0.5980 O   0  0  0  0  0  0  0  0  0  0  0  0
    5.0990    1.3350    0.5350 C   0  0  0  0  0  0  0  0  0  0  0  0
    4.1750    1.8110   -1.7380 C   0  0  0  0  0  0  0  0  0  0  0  0
    1.5800   -2.1700   -0.0130 C   0  0  0  0  0  0  0  0  0  0  0  0
    0.5470   -2.9250    0.3630 N   0  0  0  0  0  0  0  0  0  0  0  0
    0.6470   -4.2010    0.1560 C   0  0  0  0  0  0  0  0  0  0  0  0
   -0.3180   -5.1400    0.4760 N   0  0  0  0  0  0  0  0  0  0  0  0
    2.1990   -4.5540   -0.5960 S   0  0  0  0  0  0  0  0  0  0  0  0
    2.6090   -2.8410   -0.5670 C   0  0  0  0  0  0  0  0  0  0  0  0
   -4.1300    2.9110   -1.1190 H   0  0  0  0  0  0  0  0  0  0  0  0
   -7.1020    2.0520   -0.4890 H   0  0  0  0  0  0  0  0  0  0  0  0
   -1.8270   -0.5800   -0.9030 H   0  0  0  0  0  0  0  0  0  0  0  0
   -1.4990    0.9040    2.1250 H   0  0  0  0  0  0  0  0  0  0  0  0
   -2.2590   -0.6710    2.4560 H   0  0  0  0  0  0  0  0  0  0  0  0
   -0.6940   -1.6810    0.9630 H   0  0  0  0  0  0  0  0  0  0  0  0
    4.8650    5.1800    0.0610 H   0  0  0  0  0  0  0  0  0  0  0  0
    5.1400    0.2720    0.2960 H   0  0  0  0  0  0  0  0  0  0  0  0
    6.0400    1.8070    0.2510 H   0  0  0  0  0  0  0  0  0  0  0  0
    4.9380    1.4610    1.6050 H   0  0  0  0  0  0  0  0  0  0  0  0
    3.3560    2.2750   -2.2860 H   0  0  0  0  0  0  0  0  0  0  0  0
    5.1160    2.2830   -2.0210 H   0  0  0  0  0  0  0  0  0  0  0  0
    4.2160    0.7480   -1.9760 H   0  0  0  0  0  0  0  0  0  0  0  0
   -1.1500   -4.8600    0.8900 H   0  0  0  0  0  0  0  0  0  0  0  0
   -0.1630   -6.0790    0.2870 H   0  0  0  0  0  0  0  0  0  0  0  0
    3.5250   -2.4030   -0.9340 H   0  0  0  0  0  0  0  0  0  0  0  0
 23 24  1  0  0  0  0
 22 23  2  0  0  0  0
 23 25  1  0  0  0  0
 21 22  1  0  0  0  0
 25 26  1  0  0  0  0
 10 11  2  0  0  0  0
 21 26  2  0  0  0  0
 12 21  1  0  0  0  0
 10 12  1  0  0  0  0
  9 10  1  0  0  0  0
 12 13  2  0  0  0  0
  8  9  1  0  0  0  0
  6  8  1  0  0  0  0
  6  7  1  0  0  0  0
  5  6  1  0  0  0  0
 13 14  1  0  0  0  0
  2  5  1  0  0  0  0
 14 15  1  0  0  0  0
  2  4  2  0  0  0  0
  1  2  1  0  0  0  0
  2  3  1  0  0  0  0
 16 18  2  0  0  0  0
 15 20  1  0  0  0  0
 15 16  1  0  0  0  0
 15 19  1  0  0  0  0
 16 17  1  0  0  0  0
  1 27  1  0  0  0  0
  3 28  1  0  0  0  0
  7 29  1  0  0  0  0
  8 30  1  0  0  0  0
  8 31  1  0  0  0  0
  9 32  1  0  0  0  0
 17 33  1  0  0  0  0
 19 34  1  0  0  0  0
 19 35  1  0  0  0  0
 19 36  1  0  0  0  0
 20 37  1  0  0  0  0
 20 38  1  0  0  0  0
 20 39  1  0  0  0  0
 24 40  1  0  0  0  0
 24 41  1  0  0  0  0
 26 42  1  0  0  0  0
M  END
> <OPENEYE_ISO_SMILES>
B(CNC(=O)/C(=N\OC(C)(C)C(=O)O)/c1csc(n1)N)(O)OP(=O)(O)O

> <OPENEYE_INCHI>
InChI=1S/C10H16BN4O9PS/c1-10(2,8(17)18)23-15-6(5-3-26-9(12)14-5)7(16)13-4-11(19)24-25(20,21)22/h3,19H,4H2,1-2H3,(H2,12,14)(H,13,16)(H,17,18)(H2,20,21,22)/b15-6-

> <OPENEYE_INCHIKEY>
NLJWLRKAKQZXHE-UUASQNMZSA-N

> <FORMULA>
C10H16BN4O9PS

$$$$
