M9W
  -OEChem-07282321083D

 40 40  0     1  0  0  0  0  0999 V2000
    4.8080   -0.2790    1.7280 C   0  0  0  0  0  0  0  0  0  0  0  0
    3.9460   -0.3790    0.6270 C   0  0  0  0  0  0  0  0  0  0  0  0
    2.7180    0.1940    0.6730 C   0  0  0  0  0  0  0  0  0  0  0  0
    0.5540    0.7160   -0.3470 C   0  0  1  0  0  0  0  0  0  0  0  0
    0.6610    2.1650   -0.7470 C   0  0  0  0  0  0  0  0  0  0  0  0
   -0.3850   -0.0110   -1.3120 C   0  0  2  0  0  0  0  0  0  0  0  0
    0.1770    0.0750   -2.7330 C   0  0  0  0  0  0  0  0  0  0  0  0
   -1.7670    0.6450   -1.2710 C   0  0  0  0  0  0  0  0  0  0  0  0
   -3.1350   -0.9740    3.1190 C   0  0  0  0  0  0  0  0  0  0  0  0
   -3.0580    1.2630    2.0210 C   0  0  0  0  0  0  0  0  0  0  0  0
   -2.6780    1.7210    0.8050 C   0  0  0  0  0  0  0  0  0  0  0  0
    1.8800    0.0970   -0.3970 N   0  0  0  0  0  0  0  0  0  0  0  0
   -2.2690    0.6380    0.1060 N   0  0  0  0  0  0  0  0  0  0  0  0
   -2.3970   -0.4000    0.8570 N   0  0  0  0  0  0  0  0  0  0  0  0
   -2.8600   -0.0600    2.0080 N   0  3  0  0  0  0  0  0  0  0  0  0
    5.9100   -0.7890    1.6850 O   0  0  0  0  0  0  0  0  0  0  0  0
    1.5560    2.5270   -1.4740 O   0  0  0  0  0  0  0  0  0  0  0  0
   -0.2380    3.0540   -0.2950 O   0  0  0  0  0  0  0  0  0  0  0  0
   -1.4960   -2.0390   -2.1390 O   0  0  0  0  0  0  0  0  0  0  0  0
   -0.6550   -3.3410   -0.3750 O   0  0  0  0  0  0  0  0  0  0  0  0
   -0.5260   -1.7480   -0.8230 S   0  0  0  0  0  0  0  0  0  0  0  0
    4.4940    0.2550    2.6130 H   0  0  0  0  0  0  0  0  0  0  0  0
    4.2600   -0.9130   -0.2570 H   0  0  0  0  0  0  0  0  0  0  0  0
    2.4050    0.7280    1.5580 H   0  0  0  0  0  0  0  0  0  0  0  0
    0.1580    0.6470    0.6660 H   0  0  0  0  0  0  0  0  0  0  0  0
    1.1620   -0.3920   -2.7630 H   0  0  0  0  0  0  0  0  0  0  0  0
   -0.4910   -0.4430   -3.4200 H   0  0  0  0  0  0  0  0  0  0  0  0
    0.2620    1.1210   -3.0270 H   0  0  0  0  0  0  0  0  0  0  0  0
   -1.6920    1.6730   -1.6250 H   0  0  0  0  0  0  0  0  0  0  0  0
   -2.4520    0.0890   -1.9100 H   0  0  0  0  0  0  0  0  0  0  0  0
   -2.2440   -1.0680    3.7410 H   0  0  0  0  0  0  0  0  0  0  0  0
   -3.9560   -0.5810    3.7180 H   0  0  0  0  0  0  0  0  0  0  0  0
   -3.4080   -1.9530    2.7250 H   0  0  0  0  0  0  0  0  0  0  0  0
   -3.4420    1.8510    2.8420 H   0  0  0  0  0  0  0  0  0  0  0  0
   -2.6990    2.7450    0.4630 H   0  0  0  0  0  0  0  0  0  0  0  0
    2.1620   -0.3830   -1.1920 H   0  0  0  0  0  0  0  0  0  0  0  0
   -0.1280    3.9720   -0.5790 H   0  0  0  0  0  0  0  0  0  0  0  0
   -2.4420   -2.0330   -1.9390 H   0  0  0  0  0  0  0  0  0  0  0  0
   -0.1700   -3.5630    0.4310 H   0  0  0  0  0  0  0  0  0  0  0  0
    0.8720   -1.8920   -0.9330 H   0  0  0  0  0  0  0  0  0  0  0  0
  5 17  2  0  0  0  0
  1 16  2  0  0  0  0
  5 18  1  0  0  0  0
  4  5  1  0  0  0  0
 20 21  1  0  0  0  0
  1  2  1  0  0  0  0
  4 12  1  0  0  0  0
  4  6  1  0  0  0  0
  6 21  1  0  0  0  0
 19 21  1  0  0  0  0
  2  3  2  0  0  0  0
  3 12  1  0  0  0  0
  6  8  1  0  0  0  0
  6  7  1  0  0  0  0
  8 13  1  0  0  0  0
 13 14  1  0  0  0  0
 11 13  1  0  0  0  0
 14 15  2  0  0  0  0
 10 11  2  0  0  0  0
 10 15  1  0  0  0  0
  9 15  1  0  0  0  0
  1 22  1  0  0  0  0
  2 23  1  0  0  0  0
  3 24  1  0  0  0  0
  4 25  1  0  0  0  0
  7 26  1  0  0  0  0
  7 27  1  0  0  0  0
  7 28  1  0  0  0  0
  8 29  1  0  0  0  0
  8 30  1  0  0  0  0
  9 31  1  0  0  0  0
  9 32  1  0  0  0  0
  9 33  1  0  0  0  0
 10 34  1  0  0  0  0
 11 35  1  0  0  0  0
 12 36  1  0  0  0  0
 18 37  1  0  0  0  0
 19 38  1  0  0  0  0
 20 39  1  0  0  0  0
 21 40  1  0  0  0  0
M  CHG  1  15   1
M  END
> <OPENEYE_ISO_SMILES>
C[C@](Cn1cc[n+](n1)C)([C@H](C(=O)O)N/C=C/C=O)S(O)O

> <OPENEYE_INCHI>
InChI=1S/C11H18N4O5S/c1-11(21(19)20,8-15-6-5-14(2)13-15)9(10(17)18)12-4-3-7-16/h3-7,9,21H,8H2,1-2H3,(H3-,12,16,17,18,19,20)/p+1/t9-,11-/m0/s1

> <OPENEYE_INCHIKEY>
ZRCLGZSXPUSAJR-ONGXEEELSA-O

> <FORMULA>
C11H19N4O5S+

$$$$
