REMARK  12 active torsions:
REMARK  status: ('A' for Active; 'I' for Inactive)
REMARK    1  A    between atoms: C_1  and  C_2 
REMARK    2  A    between atoms: C_2  and  C_3 
REMARK    3  A    between atoms: C_3  and  N_12 
REMARK    4  A    between atoms: CA_4  and  C_5 
REMARK    5  A    between atoms: CA_4  and  N_12 
REMARK    6  A    between atoms: CA_4  and  C_6 
REMARK    7  A    between atoms: C_5  and  OXT_18 
REMARK    8  A    between atoms: C_6  and  S_21 
REMARK    9  A    between atoms: C_6  and  C_8 
REMARK   10  A    between atoms: C_8  and  N_13 
REMARK   11  A    between atoms: O_19  and  S_21 
REMARK   12  A    between atoms: O_20  and  S_21 
ROOT
HETATM    1  C   UNL     1      -0.385  -0.011  -1.312  1.00  0.00     0.078 C 
HETATM    2  C   UNL     1       0.177   0.075  -2.733  1.00  0.00     0.034 C 
ENDROOT
BRANCH   1   3
HETATM    3  CA  UNL     1       0.554   0.716  -0.347  1.00  0.00     0.202 C 
BRANCH   3   4
HETATM    4  C   UNL     1       0.661   2.165  -0.747  1.00  0.00     0.165 C 
HETATM    5  O   UNL     1       1.556   2.527  -1.474  1.00  0.00    -0.648 OA
BRANCH   4   6
HETATM    6  OXT UNL     1      -0.238   3.054  -0.295  1.00  0.00    -0.775 OA
HETATM    7  HXT UNL     1      -0.128   3.972  -0.579  1.00  0.00     0.167 HD
ENDBRANCH   4   6
ENDBRANCH   3   4
BRANCH   3   8
HETATM    8  N   UNL     1       1.880   0.097  -0.397  1.00  0.00    -0.384 N 
HETATM    9  H   UNL     1       2.162  -0.383  -1.192  1.00  0.00     0.159 HD
BRANCH   8  10
HETATM   10  C   UNL     1       2.718   0.194   0.673  1.00  0.00     0.087 C 
BRANCH  10  11
HETATM   11  C   UNL     1       3.946  -0.379   0.627  1.00  0.00     0.058 C 
BRANCH  11  12
HETATM   12  C   UNL     1       4.808  -0.279   1.728  1.00  0.00     0.260 C 
HETATM   13  O   UNL     1       5.910  -0.789   1.685  1.00  0.00    -0.302 OA
ENDBRANCH  11  12
ENDBRANCH  10  11
ENDBRANCH   8  10
ENDBRANCH   3   8
ENDBRANCH   1   3
BRANCH   1  14
HETATM   14  S   UNL     1      -0.526  -1.748  -0.823  1.00  0.00    -0.037 S 
HETATM   15  H   UNL     1       0.872  -1.892  -0.933  1.00  0.00     0.137 HD
BRANCH  14  16
HETATM   16  O   UNL     1      -1.496  -2.039  -2.139  1.00  0.00    -0.329 OA
HETATM   17  H   UNL     1      -2.442  -2.033  -1.939  1.00  0.00     0.228 HD
ENDBRANCH  14  16
BRANCH  14  18
HETATM   18  O   UNL     1      -0.655  -3.341  -0.375  1.00  0.00    -0.329 OA
HETATM   19  H   UNL     1      -0.170  -3.563   0.431  1.00  0.00     0.228 HD
ENDBRANCH  14  18
ENDBRANCH   1  14
BRANCH   1  20
HETATM   20  C   UNL     1      -1.767   0.645  -1.271  1.00  0.00     0.177 C 
BRANCH  20  21
HETATM   21  N   UNL     1      -2.269   0.638   0.106  1.00  0.00    -0.261 N 
HETATM   22  C   UNL     1      -2.678   1.721   0.805  1.00  0.00     0.132 A 
HETATM   23  C   UNL     1      -3.058   1.263   2.021  1.00  0.00     0.132 A 
HETATM   24  N   UNL     1      -2.860  -0.060   2.008  1.00  0.00    -0.267 N 
HETATM   25  C   UNL     1      -3.135  -0.974   3.119  1.00  0.00     0.181 C 
HETATM   26  N   UNL     1      -2.397  -0.400   0.857  1.00  0.00    -0.090 NA
ENDBRANCH  20  21
ENDBRANCH   1  20
TORSDOF 12
