MER
  -OEChem-07282321083D

 53 54  0     1  0  0  0  0  0999 V2000
    4.2690   -0.4240    1.2270 C   0  0  0  0  0  0  0  0  0  0  0  0
    0.9320    0.2270    0.3670 C   0  0  0  0  0  0  0  0  0  0  0  0
    4.1580   -1.0210   -0.1520 C   0  0  1  0  0  0  0  0  0  0  0  0
    2.8960   -0.4920   -0.8370 C   0  0  2  0  0  0  0  0  0  0  0  0
    1.6510    1.3060    0.0040 C   0  0  0  0  0  0  0  0  0  0  0  0
    4.4320   -1.1410    2.1850 O   0  0  0  0  0  0  0  0  0  0  0  0
    5.3870   -0.6320   -0.9760 C   0  0  2  0  0  0  0  0  0  0  0  0
    5.2820   -1.1980   -2.2840 O   0  0  0  0  0  0  0  0  0  0  0  0
    6.6490   -1.1610   -0.2920 C   0  0  0  0  0  0  0  0  0  0  0  0
    2.8160    0.9690   -0.7040 N   0  0  0  0  0  0  0  0  0  0  0  0
    1.2730    2.6360    0.3040 C   0  0  0  0  0  0  0  0  0  0  0  0
    2.1010    3.6580   -0.0020 O   0  0  0  0  0  0  0  0  0  0  0  0
    0.2020    2.8590    0.8380 O   0  0  0  0  0  0  0  0  0  0  0  0
   -0.5860    0.2590    1.2600 S   0  0  0  0  0  0  0  0  0  0  0  0
   -1.6890   -0.4840    0.0330 C   0  0  1  0  0  0  0  0  0  0  0  0
   -3.1360   -0.5800    0.5820 C   0  0  0  0  0  0  0  0  0  0  0  0
   -3.9690   -0.5640   -0.7240 C   0  0  2  0  0  0  0  0  0  0  0  0
    1.6380   -1.0170   -0.1220 C   0  0  1  0  0  0  0  0  0  0  0  0
   -3.2540    0.3740   -1.6160 N   0  0  0  0  0  0  0  0  0  0  0  0
    2.0220   -1.9130    1.0580 C   0  0  0  0  0  0  0  0  0  0  0  0
   -1.8430    0.4400   -1.1930 C   0  0  0  0  0  0  0  0  0  0  0  0
   -5.3650   -0.0670   -0.4510 C   0  0  0  0  0  0  0  0  0  0  0  0
   -6.2860   -0.9000    0.0730 N   0  0  0  0  0  0  0  0  0  0  0  0
   -5.6600    1.0820   -0.7020 O   0  0  0  0  0  0  0  0  0  0  0  0
   -5.9300   -2.2880    0.3770 C   0  0  0  0  0  0  0  0  0  0  0  0
   -7.6430   -0.4170    0.3390 C   0  0  0  0  0  0  0  0  0  0  0  0
    4.2080    0.6470    1.3590 H   0  0  0  0  0  0  0  0  0  0  0  0
    4.1020   -2.1060   -0.0740 H   0  0  0  0  0  0  0  0  0  0  0  0
    2.8850   -0.7810   -1.8870 H   0  0  0  0  0  0  0  0  0  0  0  0
    5.4430    0.4540   -1.0540 H   0  0  0  0  0  0  0  0  0  0  0  0
    5.2270   -2.1640   -2.2920 H   0  0  0  0  0  0  0  0  0  0  0  0
    6.5920   -2.2460   -0.2140 H   0  0  0  0  0  0  0  0  0  0  0  0
    7.5240   -0.8830   -0.8790 H   0  0  0  0  0  0  0  0  0  0  0  0
    6.7290   -0.7290    0.7060 H   0  0  0  0  0  0  0  0  0  0  0  0
    3.4640    1.6010   -1.0520 H   0  0  0  0  0  0  0  0  0  0  0  0
    1.7570    4.5280    0.2400 H   0  0  0  0  0  0  0  0  0  0  0  0
   -1.3220   -1.4660   -0.2680 H   0  0  0  0  0  0  0  0  0  0  0  0
   -3.2860   -1.5110    1.1290 H   0  0  0  0  0  0  0  0  0  0  0  0
   -3.3750    0.2810    1.2070 H   0  0  0  0  0  0  0  0  0  0  0  0
   -3.9990   -1.5600   -1.1660 H   0  0  0  0  0  0  0  0  0  0  0  0
    1.0060   -1.5610   -0.8240 H   0  0  0  0  0  0  0  0  0  0  0  0
   -3.3300    0.0850   -2.5790 H   0  0  0  0  0  0  0  0  0  0  0  0
    1.1340   -2.4240    1.4300 H   0  0  0  0  0  0  0  0  0  0  0  0
    2.7550   -2.6500    0.7310 H   0  0  0  0  0  0  0  0  0  0  0  0
    2.4500   -1.3020    1.8530 H   0  0  0  0  0  0  0  0  0  0  0  0
   -1.5850    1.4630   -0.9210 H   0  0  0  0  0  0  0  0  0  0  0  0
   -1.1970    0.0950   -2.0010 H   0  0  0  0  0  0  0  0  0  0  0  0
   -5.5570   -2.3520    1.3990 H   0  0  0  0  0  0  0  0  0  0  0  0
   -6.8120   -2.9210    0.2720 H   0  0  0  0  0  0  0  0  0  0  0  0
   -5.1570   -2.6250   -0.3140 H   0  0  0  0  0  0  0  0  0  0  0  0
   -8.2650   -0.5770   -0.5410 H   0  0  0  0  0  0  0  0  0  0  0  0
   -8.0640   -0.9610    1.1850 H   0  0  0  0  0  0  0  0  0  0  0  0
   -7.6110    0.6470    0.5720 H   0  0  0  0  0  0  0  0  0  0  0  0
  1  6  2  0  0  0  0
  1  3  1  0  0  0  0
  1 27  1  0  0  0  0
  2  5  2  0  0  0  0
  2 18  1  0  0  0  0
  2 14  1  0  0  0  0
  3  4  1  0  0  0  0
  3  7  1  0  0  0  0
  3 28  1  0  0  0  0
  4 10  1  0  0  0  0
  4 18  1  0  0  0  0
  4 29  1  0  0  0  0
  5 11  1  0  0  0  0
  5 10  1  0  0  0  0
  7  8  1  0  0  0  0
  7  9  1  0  0  0  0
  7 30  1  0  0  0  0
  8 31  1  0  0  0  0
  9 32  1  0  0  0  0
  9 33  1  0  0  0  0
  9 34  1  0  0  0  0
 10 35  1  0  0  0  0
 11 13  2  0  0  0  0
 11 12  1  0  0  0  0
 12 36  1  0  0  0  0
 14 15  1  0  0  0  0
 15 16  1  0  0  0  0
 15 21  1  0  0  0  0
 15 37  1  0  0  0  0
 16 17  1  0  0  0  0
 16 38  1  0  0  0  0
 16 39  1  0  0  0  0
 17 22  1  0  0  0  0
 17 19  1  0  0  0  0
 17 40  1  0  0  0  0
 18 20  1  0  0  0  0
 18 41  1  0  0  0  0
 19 21  1  0  0  0  0
 19 42  1  0  0  0  0
 20 43  1  0  0  0  0
 20 44  1  0  0  0  0
 20 45  1  0  0  0  0
 21 46  1  0  0  0  0
 21 47  1  0  0  0  0
 22 23  1  0  0  0  0
 22 24  2  0  0  0  0
 23 25  1  0  0  0  0
 23 26  1  0  0  0  0
 25 48  1  0  0  0  0
 25 49  1  0  0  0  0
 25 50  1  0  0  0  0
 26 51  1  0  0  0  0
 26 52  1  0  0  0  0
 26 53  1  0  0  0  0
M  END
> <OPENEYE_ISO_SMILES>
C[C@@H]1[C@@H](NC(=C1S[C@H]2C[C@H](NC2)C(=O)N(C)C)C(=O)O)[C@H](C=O)[C@@H](C)O

> <OPENEYE_INCHI>
InChI=1S/C17H27N3O5S/c1-8-13(11(7-21)9(2)22)19-14(17(24)25)15(8)26-10-5-12(18-6-10)16(23)20(3)4/h7-13,18-19,22H,5-6H2,1-4H3,(H,24,25)/t8-,9-,10+,11-,12+,13-/m1/s1

> <OPENEYE_INCHIKEY>
DYQHXZPAIVAJRU-HTXLXMOSSA-N

> <FORMULA>
C17H27N3O5S

$$$$
