REMARK  7 active torsions:
REMARK  status: ('A' for Active; 'I' for Inactive)
REMARK    1  A    between atoms: C_5  and  N_16 
REMARK    2  A    between atoms: C_6  and  C_11 
REMARK    3  A    between atoms: C_10  and  N_14 
REMARK       I    between atoms: C_11  and  N_14 
REMARK    4  A    between atoms: C_12  and  N_15 
REMARK    5  A    between atoms: N_15  and  O_22 
REMARK    6  A    between atoms: O_20  and  S_23 
REMARK    7  A    between atoms: O_22  and  S_23 
ROOT
HETATM    1  C   UNL     1       1.464   0.912  -1.215  1.00  0.00     0.026 C 
HETATM    2  C   UNL     1       1.416  -1.158   0.184  1.00  0.00     0.148 C 
HETATM    3  C   UNL     1      -0.697   0.177  -0.199  1.00  0.00     0.178 C 
HETATM    4  C   UNL     1      -0.049   0.823  -1.428  1.00  0.00     0.037 C 
HETATM    5  C   UNL     1       2.040  -0.496  -1.049  1.00  0.00     0.103 C 
HETATM    6  N   UNL     1      -0.046  -1.116   0.054  1.00  0.00    -0.344 N 
ENDROOT
BRANCH   3   7
HETATM    7  C   UNL     1      -2.166  -0.039  -0.457  1.00  0.00     0.240 C 
HETATM    8  N   UNL     1      -3.078   0.758   0.135  1.00  0.00    -0.355 N 
HETATM    9  H   UNL     1      -2.789   1.471   0.726  1.00  0.00     0.162 HD
HETATM   10  O   UNL     1      -2.528  -0.929  -1.196  1.00  0.00    -0.271 OA
BRANCH   8  11
HETATM   11  C   UNL     1      -4.506   0.549  -0.116  1.00  0.00     0.087 C 
HETATM   12  C   UNL     1      -5.264   1.860   0.114  1.00  0.00     0.055 C 
HETATM   13  C   UNL     1      -6.761   1.620  -0.090  1.00  0.00     0.271 C 
HETATM   14  N   UNL     1      -7.226   0.594   0.851  1.00  0.00     0.083 N 
HETATM   15  C   UNL     1      -6.547  -0.687   0.618  1.00  0.00     0.271 C 
HETATM   16  H   UNL     1      -7.107   0.897   1.806  1.00  0.00     0.315 HD
HETATM   17  C   UNL     1      -5.043  -0.517   0.843  1.00  0.00     0.055 C 
ENDBRANCH   8  11
ENDBRANCH   3   7
BRANCH   6  18
HETATM   18  C   UNL     1      -0.778  -2.243   0.164  1.00  0.00     0.351 C 
HETATM   19  O   UNL     1      -0.225  -3.317   0.274  1.00  0.00    -0.284 OA
ENDBRANCH   6  18
BRANCH   5  20
HETATM   20  N   UNL     1       3.497  -0.412  -0.876  1.00  0.00    -0.180 NA
HETATM   21  H   UNL     1       3.938  -0.036  -1.702  1.00  0.00     0.155 HD
BRANCH  20  22
HETATM   22  O   UNL     1       3.840   0.377   0.307  1.00  0.00    -0.167 OA
BRANCH  22  23
HETATM   23  S   UNL     1       5.336   0.508   0.551  1.00  0.00     0.257 S 
HETATM   24  O   UNL     1       5.483   1.120   1.826  1.00  0.00    -0.578 OA
HETATM   25  O   UNL     1       5.908  -0.750   0.222  1.00  0.00    -0.578 OA
BRANCH  23  26
HETATM   26  O   UNL     1       5.873   1.504  -0.467  1.00  0.00    -0.273 OA
HETATM   27  H   UNL     1       6.825   1.662  -0.398  1.00  0.00     0.234 HD
ENDBRANCH  23  26
ENDBRANCH  22  23
ENDBRANCH  20  22
ENDBRANCH   5  20
TORSDOF 7
