MK7
  -OEChem-07282321083D

 45 46  0     1  0  0  0  0  0999 V2000
    1.4640    0.9120   -1.2150 C   0  0  0  0  0  0  0  0  0  0  0  0
   -6.7610    1.6200   -0.0900 C   0  0  0  0  0  0  0  0  0  0  0  0
   -6.5470   -0.6870    0.6180 C   0  0  0  0  0  0  0  0  0  0  0  0
    1.4160   -1.1580    0.1840 C   0  0  0  0  0  0  0  0  0  0  0  0
   -0.7780   -2.2430    0.1640 C   0  0  0  0  0  0  0  0  0  0  0  0
   -0.6970    0.1770   -0.1990 C   0  0  1  0  0  0  0  0  0  0  0  0
   -0.0490    0.8230   -1.4280 C   0  0  0  0  0  0  0  0  0  0  0  0
   -5.2640    1.8600    0.1140 C   0  0  0  0  0  0  0  0  0  0  0  0
   -5.0430   -0.5170    0.8430 C   0  0  0  0  0  0  0  0  0  0  0  0
   -4.5060    0.5490   -0.1160 C   0  0  0  0  0  0  0  0  0  0  0  0
   -2.1660   -0.0390   -0.4570 C   0  0  0  0  0  0  0  0  0  0  0  0
    2.0400   -0.4960   -1.0490 C   0  0  2  0  0  0  0  0  0  0  0  0
   -7.2260    0.5940    0.8510 N   0  0  0  0  0  0  0  0  0  0  0  0
   -3.0780    0.7580    0.1350 N   0  0  0  0  0  0  0  0  0  0  0  0
    3.4970   -0.4120   -0.8760 N   0  0  0  0  0  0  0  0  0  0  0  0
   -0.0460   -1.1160    0.0540 N   0  0  0  0  0  0  0  0  0  0  0  0
    5.4830    1.1200    1.8260 O   0  0  0  0  0  0  0  0  0  0  0  0
   -0.2250   -3.3170    0.2740 O   0  0  0  0  0  0  0  0  0  0  0  0
   -2.5280   -0.9290   -1.1960 O   0  0  0  0  0  0  0  0  0  0  0  0
    5.8730    1.5040   -0.4670 O   0  0  0  0  0  0  0  0  0  0  0  0
    5.9080   -0.7500    0.2220 O   0  0  0  0  0  0  0  0  0  0  0  0
    3.8400    0.3770    0.3070 O   0  0  0  0  0  0  0  0  0  0  0  0
    5.3360    0.5080    0.5510 S   0  0  0  0  0  0  0  0  0  0  0  0
    1.9240    1.3930   -2.0770 H   0  0  0  0  0  0  0  0  0  0  0  0
    1.6700    1.4970   -0.3180 H   0  0  0  0  0  0  0  0  0  0  0  0
   -7.3050    2.5480    0.0870 H   0  0  0  0  0  0  0  0  0  0  0  0
   -6.9400    1.2840   -1.1110 H   0  0  0  0  0  0  0  0  0  0  0  0
   -6.7260   -1.0130   -0.4060 H   0  0  0  0  0  0  0  0  0  0  0  0
   -6.9350   -1.4350    1.3100 H   0  0  0  0  0  0  0  0  0  0  0  0
    1.7480   -2.1940    0.2500 H   0  0  0  0  0  0  0  0  0  0  0  0
    1.7210   -0.6180    1.0810 H   0  0  0  0  0  0  0  0  0  0  0  0
   -1.8560   -2.1900    0.1540 H   0  0  0  0  0  0  0  0  0  0  0  0
   -0.5690    0.8270    0.6660 H   0  0  0  0  0  0  0  0  0  0  0  0
   -0.4560    1.8240   -1.5690 H   0  0  0  0  0  0  0  0  0  0  0  0
   -0.2580    0.2170   -2.3100 H   0  0  0  0  0  0  0  0  0  0  0  0
   -4.9150    2.6110   -0.5950 H   0  0  0  0  0  0  0  0  0  0  0  0
   -5.0860    2.2090    1.1310 H   0  0  0  0  0  0  0  0  0  0  0  0
   -4.8620   -0.2050    1.8720 H   0  0  0  0  0  0  0  0  0  0  0  0
   -4.5370   -1.4640    0.6550 H   0  0  0  0  0  0  0  0  0  0  0  0
   -4.6520    0.2200   -1.1450 H   0  0  0  0  0  0  0  0  0  0  0  0
    1.8120   -1.0890   -1.9340 H   0  0  0  0  0  0  0  0  0  0  0  0
   -7.1070    0.8970    1.8060 H   0  0  0  0  0  0  0  0  0  0  0  0
   -2.7890    1.4710    0.7260 H   0  0  0  0  0  0  0  0  0  0  0  0
    3.9380   -0.0360   -1.7020 H   0  0  0  0  0  0  0  0  0  0  0  0
    6.8250    1.6620   -0.3980 H   0  0  0  0  0  0  0  0  0  0  0  0
 21 23  2  0  0  0  0
  5 18  2  0  0  0  0
  2  8  1  0  0  0  0
  8 10  1  0  0  0  0
  2 13  1  0  0  0  0
  3 13  1  0  0  0  0
  9 10  1  0  0  0  0
  3  9  1  0  0  0  0
 10 14  1  0  0  0  0
 11 14  1  0  0  0  0
 17 23  2  0  0  0  0
  6  7  1  0  0  0  0
  6 11  1  0  0  0  0
  6 16  1  0  0  0  0
 20 23  1  0  0  0  0
 22 23  1  0  0  0  0
  1  7  1  0  0  0  0
  5 16  1  0  0  0  0
 11 19  2  0  0  0  0
  4 16  1  0  0  0  0
 15 22  1  0  0  0  0
 12 15  1  0  0  0  0
  1 12  1  0  0  0  0
  4 12  1  0  0  0  0
  1 24  1  0  0  0  0
  1 25  1  0  0  0  0
  2 26  1  0  0  0  0
  2 27  1  0  0  0  0
  3 28  1  0  0  0  0
  3 29  1  0  0  0  0
  4 30  1  0  0  0  0
  4 31  1  0  0  0  0
  5 32  1  0  0  0  0
  6 33  1  0  0  0  0
  7 34  1  0  0  0  0
  7 35  1  0  0  0  0
  8 36  1  0  0  0  0
  8 37  1  0  0  0  0
  9 38  1  0  0  0  0
  9 39  1  0  0  0  0
 10 40  1  0  0  0  0
 12 41  1  0  0  0  0
 13 42  1  0  0  0  0
 14 43  1  0  0  0  0
 15 44  1  0  0  0  0
 20 45  1  0  0  0  0
M  END
> <OPENEYE_ISO_SMILES>
C1C[C@H](N(C[C@@H]1NOS(=O)(=O)O)C=O)C(=O)NC2CCNCC2

> <OPENEYE_INCHI>
InChI=1S/C12H22N4O6S/c17-8-16-7-10(15-22-23(19,20)21)1-2-11(16)12(18)14-9-3-5-13-6-4-9/h8-11,13,15H,1-7H2,(H,14,18)(H,19,20,21)/t10-,11+/m1/s1

> <OPENEYE_INCHIKEY>
VGHMECNLFQGIJM-MNOVXSKESA-N

> <FORMULA>
C12H22N4O6S

$$$$
