MOX
  -OEChem-07282321083D

 47 48  0     1  0  0  0  0  0999 V2000
    0.7160    2.2350   -1.6990 C   0  0  0  0  0  0  0  0  0  0  0  0
   -0.4580    2.5090   -1.7710 O   0  0  0  0  0  0  0  0  0  0  0  0
    1.2520    1.5320   -0.4780 C   0  0  1  0  0  0  0  0  0  0  0  0
    0.1600    1.3000    0.4710 N   0  0  0  0  0  0  0  0  0  0  0  0
    1.8640    0.1920   -0.8890 C   0  0  1  0  0  0  0  0  0  0  0  0
    2.8730    0.4230   -1.8690 O   0  0  0  0  0  0  0  0  0  0  0  0
    3.6020   -0.7590   -2.2340 C   0  0  0  0  0  0  0  0  0  0  0  0
    4.2780   -1.2600   -0.9710 C   0  0  0  0  0  0  0  0  0  0  0  0
    3.5030   -1.1480    0.2870 C   0  0  0  0  0  0  0  0  0  0  0  0
    3.9880   -1.8090    1.5280 C   0  0  0  0  0  0  0  0  0  0  0  0
    2.3990   -0.4680    0.2950 N   0  0  0  0  0  0  0  0  0  0  0  0
    5.5040   -1.7730   -0.9930 C   0  0  0  0  0  0  0  0  0  0  0  0
   -0.9030    0.5550    0.1060 C   0  0  0  0  0  0  0  0  0  0  0  0
   -0.9550    0.0770   -1.0070 O   0  0  0  0  0  0  0  0  0  0  0  0
   -2.0260    0.3170    1.0820 C   0  0  2  0  0  0  0  0  0  0  0  0
   -3.0820   -0.5400    0.4330 C   0  0  0  0  0  0  0  0  0  0  0  0
   -3.4110   -1.7650    0.9820 C   0  0  0  0  0  0  0  0  0  0  0  0
   -4.3790   -2.5530    0.3890 C   0  0  0  0  0  0  0  0  0  0  0  0
   -5.0210   -2.1120   -0.7600 C   0  0  0  0  0  0  0  0  0  0  0  0
   -5.9730   -2.8850   -1.3450 O   0  0  0  0  0  0  0  0  0  0  0  0
   -4.6900   -0.8820   -1.3090 C   0  0  0  0  0  0  0  0  0  0  0  0
   -3.7250   -0.0960   -0.7080 C   0  0  0  0  0  0  0  0  0  0  0  0
   -2.6290    1.6370    1.4870 C   0  0  0  0  0  0  0  0  0  0  0  0
   -2.1910    2.6660    1.0300 O   0  0  0  0  0  0  0  0  0  0  0  0
   -3.6520    1.6700    2.3560 O   0  0  0  0  0  0  0  0  0  0  0  0
    2.2530    2.3450    0.1380 O   0  0  0  0  0  0  0  0  0  0  0  0
    1.7570    3.5720    0.6760 C   0  0  0  0  0  0  0  0  0  0  0  0
    4.9840   -2.5020    1.4970 O   0  0  0  0  0  0  0  0  0  0  0  0
    3.3210   -1.6390    2.6850 O   0  0  0  0  0  0  0  0  0  0  0  0
    1.3800    2.4900   -2.5100 H   0  0  0  0  0  0  0  0  0  0  0  0
    0.2010    1.6830    1.3610 H   0  0  0  0  0  0  0  0  0  0  0  0
    1.0850   -0.4360   -1.3220 H   0  0  0  0  0  0  0  0  0  0  0  0
    2.9170   -1.5170   -2.6160 H   0  0  0  0  0  0  0  0  0  0  0  0
    4.3500   -0.5180   -2.9900 H   0  0  0  0  0  0  0  0  0  0  0  0
    6.0060   -1.9340   -1.9350 H   0  0  0  0  0  0  0  0  0  0  0  0
    5.9990   -2.0280   -0.0670 H   0  0  0  0  0  0  0  0  0  0  0  0
   -1.6380   -0.1920    1.9650 H   0  0  0  0  0  0  0  0  0  0  0  0
   -2.9110   -2.1080    1.8760 H   0  0  0  0  0  0  0  0  0  0  0  0
   -4.6350   -3.5100    0.8170 H   0  0  0  0  0  0  0  0  0  0  0  0
   -6.8690   -2.7200   -1.0190 H   0  0  0  0  0  0  0  0  0  0  0  0
   -5.1880   -0.5370   -2.2020 H   0  0  0  0  0  0  0  0  0  0  0  0
   -3.4700    0.8630   -1.1320 H   0  0  0  0  0  0  0  0  0  0  0  0
   -4.0050    2.5400    2.5850 H   0  0  0  0  0  0  0  0  0  0  0  0
    1.0610    3.3570    1.4870 H   0  0  0  0  0  0  0  0  0  0  0  0
    2.5880    4.1640    1.0580 H   0  0  0  0  0  0  0  0  0  0  0  0
    1.2420    4.1290   -0.1060 H   0  0  0  0  0  0  0  0  0  0  0  0
    3.6740   -2.0890    3.4650 H   0  0  0  0  0  0  0  0  0  0  0  0
  1  2  2  0  0  0  0
  1  3  1  0  0  0  0
  1 30  1  0  0  0  0
  3  5  1  0  0  0  0
  3  4  1  0  0  0  0
  3 26  1  0  0  0  0
  4 13  1  0  0  0  0
  4 31  1  0  0  0  0
  5 11  1  0  0  0  0
  5  6  1  0  0  0  0
  5 32  1  0  0  0  0
  6  7  1  0  0  0  0
  7  8  1  0  0  0  0
  7 33  1  0  0  0  0
  7 34  1  0  0  0  0
  8 12  2  0  0  0  0
  8  9  1  0  0  0  0
  9 10  1  0  0  0  0
  9 11  2  0  0  0  0
 10 28  2  0  0  0  0
 10 29  1  0  0  0  0
 12 35  1  0  0  0  0
 12 36  1  0  0  0  0
 13 15  1  0  0  0  0
 13 14  2  0  0  0  0
 15 23  1  0  0  0  0
 15 16  1  0  0  0  0
 15 37  1  0  0  0  0
 16 17  2  0  0  0  0
 16 22  1  0  0  0  0
 17 18  1  0  0  0  0
 17 38  1  0  0  0  0
 18 19  2  0  0  0  0
 18 39  1  0  0  0  0
 19 21  1  0  0  0  0
 19 20  1  0  0  0  0
 20 40  1  0  0  0  0
 21 22  2  0  0  0  0
 21 41  1  0  0  0  0
 22 42  1  0  0  0  0
 23 24  2  0  0  0  0
 23 25  1  0  0  0  0
 25 43  1  0  0  0  0
 26 27  1  0  0  0  0
 27 44  1  0  0  0  0
 27 45  1  0  0  0  0
 27 46  1  0  0  0  0
 29 47  1  0  0  0  0
M  END
> <OPENEYE_ISO_SMILES>
CO[C@@](C=O)([C@@H]1N=C(C(=C)CO1)C(=O)O)NC(=O)[C@H](c2ccc(cc2)O)C(=O)O

> <OPENEYE_INCHI>
InChI=1S/C18H18N2O9/c1-9-7-29-17(19-13(9)16(26)27)18(8-21,28-2)20-14(23)12(15(24)25)10-3-5-11(22)6-4-10/h3-6,8,12,17,22H,1,7H2,2H3,(H,20,23)(H,24,25)(H,26,27)/t12-,17+,18-/m0/s1

> <OPENEYE_INCHIKEY>
GOYCBKVVHGALFQ-RZAIGCCYSA-N

> <FORMULA>
C18H18N2O9

$$$$
