MX1
  -OEChem-07282321083D

 48 49  0     1  0  0  0  0  0999 V2000
    2.6710    3.0300   -1.2550 O   0  0  0  0  0  0  0  0  0  0  0  0
    3.3690    2.6380   -0.1730 C   0  0  0  0  0  0  0  0  0  0  0  0
    4.2360    3.3550    0.2820 O   0  0  0  0  0  0  0  0  0  0  0  0
    3.0780    1.3260    0.4650 C   0  0  0  0  0  0  0  0  0  0  0  0
    2.0760    0.6100    0.0600 N   0  0  0  0  0  0  0  0  0  0  0  0
    3.9340    0.8230    1.5640 C   0  0  0  0  0  0  0  0  0  0  0  0
    5.0820    1.4130    1.8810 C   0  0  0  0  0  0  0  0  0  0  0  0
    3.4340   -0.4000    2.3110 C   0  0  0  0  0  0  0  0  0  0  0  0
    2.8350   -1.2630    1.3310 O   0  0  0  0  0  0  0  0  0  0  0  0
    1.7290   -0.6770    0.6510 C   0  0  2  0  0  0  0  0  0  0  0  0
    1.2680   -1.6260   -0.4570 C   0  0  2  0  0  0  0  0  0  0  0  0
    0.8210   -2.9300    0.1520 C   0  0  0  0  0  0  0  0  0  0  0  0
   -0.2520   -2.9610    0.9570 O   0  0  0  0  0  0  0  0  0  0  0  0
    1.4290   -3.9470   -0.0840 O   0  0  0  0  0  0  0  0  0  0  0  0
    2.3490   -1.8670   -1.3590 O   0  0  0  0  0  0  0  0  0  0  0  0
    1.9860   -2.6290   -2.5120 C   0  0  0  0  0  0  0  0  0  0  0  0
    0.1510   -1.0190   -1.1860 N   0  0  0  0  0  0  0  0  0  0  0  0
   -0.9860   -0.7020   -0.5340 C   0  0  0  0  0  0  0  0  0  0  0  0
   -1.0840   -0.9190    0.6550 O   0  0  0  0  0  0  0  0  0  0  0  0
   -2.1350   -0.0780   -1.2840 C   0  0  2  0  0  0  0  0  0  0  0  0
   -1.6880    1.2260   -1.8930 C   0  0  0  0  0  0  0  0  0  0  0  0
   -2.5510    1.9620   -2.6110 O   0  0  0  0  0  0  0  0  0  0  0  0
   -0.5530    1.6090   -1.7350 O   0  0  0  0  0  0  0  0  0  0  0  0
   -3.2760    0.1760   -0.3330 C   0  0  0  0  0  0  0  0  0  0  0  0
   -4.5020   -0.4240   -0.5500 C   0  0  0  0  0  0  0  0  0  0  0  0
   -3.0920    1.0050    0.7590 C   0  0  0  0  0  0  0  0  0  0  0  0
   -4.1360    1.2390    1.6330 C   0  0  0  0  0  0  0  0  0  0  0  0
   -5.3700    0.6430    1.4140 C   0  0  0  0  0  0  0  0  0  0  0  0
   -6.3980    0.8720    2.2720 O   0  0  0  0  0  0  0  0  0  0  0  0
   -5.5500   -0.1920    0.3210 C   0  0  0  0  0  0  0  0  0  0  0  0
    2.8960    3.8910   -1.6350 H   0  0  0  0  0  0  0  0  0  0  0  0
    5.3800    2.3210    1.3770 H   0  0  0  0  0  0  0  0  0  0  0  0
    5.7170    0.9860    2.6430 H   0  0  0  0  0  0  0  0  0  0  0  0
    4.2680   -0.9080    2.7950 H   0  0  0  0  0  0  0  0  0  0  0  0
    2.6930   -0.1070    3.0540 H   0  0  0  0  0  0  0  0  0  0  0  0
    0.9120   -0.5340    1.3570 H   0  0  0  0  0  0  0  0  0  0  0  0
   -0.5000   -3.8210    1.3240 H   0  0  0  0  0  0  0  0  0  0  0  0
    1.5250   -3.5650   -2.1980 H   0  0  0  0  0  0  0  0  0  0  0  0
    1.2790   -2.0600   -3.1160 H   0  0  0  0  0  0  0  0  0  0  0  0
    2.8780   -2.8430   -3.1010 H   0  0  0  0  0  0  0  0  0  0  0  0
    0.2290   -0.8460   -2.1370 H   0  0  0  0  0  0  0  0  0  0  0  0
   -2.4640   -0.7540   -2.0730 H   0  0  0  0  0  0  0  0  0  0  0  0
   -2.2190    2.7900   -2.9820 H   0  0  0  0  0  0  0  0  0  0  0  0
   -4.6420   -1.0730   -1.4010 H   0  0  0  0  0  0  0  0  0  0  0  0
   -2.1320    1.4690    0.9290 H   0  0  0  0  0  0  0  0  0  0  0  0
   -3.9930    1.8860    2.4860 H   0  0  0  0  0  0  0  0  0  0  0  0
   -6.9460    1.6330    2.0350 H   0  0  0  0  0  0  0  0  0  0  0  0
   -6.5080   -0.6610    0.1510 H   0  0  0  0  0  0  0  0  0  0  0  0
  1  2  1  0  0  0  0
  1 31  1  0  0  0  0
  2  3  2  0  0  0  0
  2  4  1  0  0  0  0
  4  5  2  0  0  0  0
  4  6  1  0  0  0  0
  5 10  1  0  0  0  0
  6  7  2  0  0  0  0
  6  8  1  0  0  0  0
  7 32  1  0  0  0  0
  7 33  1  0  0  0  0
  8  9  1  0  0  0  0
  8 34  1  0  0  0  0
  8 35  1  0  0  0  0
  9 10  1  0  0  0  0
 10 11  1  0  0  0  0
 10 36  1  0  0  0  0
 11 12  1  0  0  0  0
 11 15  1  0  0  0  0
 11 17  1  0  0  0  0
 12 13  1  0  0  0  0
 12 14  2  0  0  0  0
 13 37  1  0  0  0  0
 15 16  1  0  0  0  0
 16 38  1  0  0  0  0
 16 39  1  0  0  0  0
 16 40  1  0  0  0  0
 17 18  1  0  0  0  0
 17 41  1  0  0  0  0
 18 19  2  0  0  0  0
 18 20  1  0  0  0  0
 20 21  1  0  0  0  0
 20 24  1  0  0  0  0
 20 42  1  0  0  0  0
 21 22  1  0  0  0  0
 21 23  2  0  0  0  0
 22 43  1  0  0  0  0
 24 25  1  0  0  0  0
 24 26  2  0  0  0  0
 25 30  2  0  0  0  0
 25 44  1  0  0  0  0
 26 27  1  0  0  0  0
 26 45  1  0  0  0  0
 27 28  2  0  0  0  0
 27 46  1  0  0  0  0
 28 29  1  0  0  0  0
 28 30  1  0  0  0  0
 29 47  1  0  0  0  0
 30 48  1  0  0  0  0
M  END
> <OPENEYE_ISO_SMILES>
CO[C@]([C@@H]1N=C(C(=C)CO1)C(=O)O)(C(=O)O)NC(=O)[C@@H](c2ccc(cc2)O)C(=O)O

> <OPENEYE_INCHI>
InChI=1S/C18H18N2O10/c1-8-7-30-16(19-12(8)15(25)26)18(29-2,17(27)28)20-13(22)11(14(23)24)9-3-5-10(21)6-4-9/h3-6,11,16,21H,1,7H2,2H3,(H,20,22)(H,23,24)(H,25,26)(H,27,28)/t11-,16-,18-/m1/s1

> <OPENEYE_INCHIKEY>
ZTOQXKUYWZBJLG-XNAIMREJSA-N

> <FORMULA>
C18H18N2O10

$$$$
