REMARK  12 active torsions:
REMARK  status: ('A' for Active; 'I' for Inactive)
REMARK    1  A    between atoms: C_1  and  C_9 
REMARK    2  A    between atoms: C_5  and  C_10 
REMARK    3  A    between atoms: C_6  and  N_19 
REMARK       I    between atoms: C_9  and  N_18 
REMARK    4  A    between atoms: CA_11  and  C_12 
REMARK    5  A    between atoms: CA_11  and  C_13 
REMARK    6  A    between atoms: CA_11  and  N_19 
REMARK    7  A    between atoms: C_12  and  OXT_24 
REMARK    8  A    between atoms: C_13  and  C_15 
REMARK    9  A    between atoms: C_13  and  S_29 
REMARK   10  A    between atoms: C_15  and  O_27 
REMARK       I    between atoms: C_16  and  N_20 
REMARK   11  A    between atoms: C_16  and  O_27 
REMARK   12  A    between atoms: O_26  and  S_29 
ROOT
HETATM    1  CA  UNL     1       0.656  -0.324   0.548  1.00  0.00     0.184 C 
ENDROOT
BRANCH   1   2
HETATM    2  C   UNL     1       0.502   0.444   1.836  1.00  0.00     0.160 C 
HETATM    3  O   UNL     1      -0.099  -0.046   2.763  1.00  0.00    -0.649 OA
BRANCH   2   4
HETATM    4  OXT UNL     1       1.032   1.671   1.953  1.00  0.00    -0.775 OA
HETATM    5  HXT UNL     1       0.907   2.125   2.798  1.00  0.00     0.167 HD
ENDBRANCH   2   4
ENDBRANCH   1   2
BRANCH   1   6
HETATM    6  C   UNL     1       2.142  -0.534   0.254  1.00  0.00     0.107 C 
HETATM    7  C   UNL     1       2.754  -1.428   1.334  1.00  0.00     0.036 C 
BRANCH   6   8
HETATM    8  C   UNL     1       2.857   0.819   0.247  1.00  0.00     0.207 C 
BRANCH   8   9
HETATM    9  O   UNL     1       4.268   0.620  -0.032  1.00  0.00    -0.302 OA
BRANCH   9  10
HETATM   10  C   UNL     1       5.044   1.719  -0.074  1.00  0.00     0.358 C 
HETATM   11  N   UNL     1       6.362   1.604  -0.328  1.00  0.00    -0.346 N 
HETATM   12  H   UNL     1       6.752   0.729  -0.481  1.00  0.00     0.161 HD
HETATM   13  H   UNL     1       6.921   2.396  -0.358  1.00  0.00     0.161 HD
HETATM   14  O   UNL     1       4.555   2.815   0.118  1.00  0.00    -0.239 OA
ENDBRANCH   9  10
ENDBRANCH   8   9
ENDBRANCH   6   8
BRANCH   6  15
HETATM   15  S   UNL     1       2.332  -1.327  -1.366  1.00  0.00     0.164 S 
HETATM   16  O   UNL     1       3.699  -1.293  -1.753  1.00  0.00    -0.228 OA
BRANCH  15  17
HETATM   17  O   UNL     1       1.684  -0.328  -2.314  1.00  0.00    -0.305 OA
HETATM   18  H   UNL     1       1.698  -0.600  -3.242  1.00  0.00     0.230 HD
ENDBRANCH  15  17
ENDBRANCH   6  15
ENDBRANCH   1   6
BRANCH   1  19
HETATM   19  N   UNL     1      -0.008  -1.629   0.674  1.00  0.00    -0.262 NA
HETATM   20  H   UNL     1       0.110  -2.006   1.602  1.00  0.00     0.130 HD
BRANCH  19  21
HETATM   21  C   UNL     1      -1.343  -1.538   0.343  1.00  0.00     0.101 A 
HETATM   22  C   UNL     1      -2.212  -2.616   0.152  1.00  0.00     0.043 A 
HETATM   23  C   UNL     1      -3.479  -2.078  -0.171  1.00  0.00     0.048 A 
HETATM   24  C   UNL     1      -3.348  -0.703  -0.166  1.00  0.00     0.042 A 
HETATM   25  C   UNL     1      -4.282   0.319  -0.416  1.00  0.00     0.047 A 
HETATM   26  N   UNL     1      -2.033  -0.389   0.150  1.00  0.00    -0.312 N 
HETATM   27  C   UNL     1      -3.875   1.640  -0.343  1.00  0.00     0.035 A 
HETATM   28  C   UNL     1      -2.476   1.933  -0.005  1.00  0.00     0.034 A 
HETATM   29  C   UNL     1      -1.622   0.929   0.225  1.00  0.00     0.099 A 
BRANCH  22  30
HETATM   30  C   UNL     1      -1.884  -3.991   0.260  1.00  0.00     0.273 C 
HETATM   31  O   UNL     1      -2.735  -4.835   0.068  1.00  0.00    -0.301 OA
ENDBRANCH  22  30
BRANCH  27  32
HETATM   32  C   UNL     1      -4.826   2.731  -0.605  1.00  0.00     0.249 C 
HETATM   33  N   UNL     1      -4.417   4.014  -0.530  1.00  0.00    -0.366 N 
HETATM   34  H   UNL     1      -3.496   4.217  -0.304  1.00  0.00     0.159 HD
HETATM   35  H   UNL     1      -5.044   4.733  -0.703  1.00  0.00     0.159 HD
HETATM   36  O   UNL     1      -5.981   2.477  -0.889  1.00  0.00    -0.268 OA
ENDBRANCH  27  32
ENDBRANCH  19  21
ENDBRANCH   1  19
TORSDOF 12
