MXC
  -OEChem-07282321083D

 47 48  0     1  0  0  0  0  0999 V2000
   -3.8750    1.6400   -0.3430 C   0  0  0  0  0  0  0  0  0  0  0  0
   -4.2820    0.3190   -0.4160 C   0  0  0  0  0  0  0  0  0  0  0  0
   -3.3480   -0.7030   -0.1660 C   0  0  0  0  0  0  0  0  0  0  0  0
   -3.4790   -2.0780   -0.1710 C   0  0  0  0  0  0  0  0  0  0  0  0
   -2.2120   -2.6160    0.1520 C   0  0  0  0  0  0  0  0  0  0  0  0
   -1.3430   -1.5380    0.3430 C   0  0  0  0  0  0  0  0  0  0  0  0
   -1.6220    0.9290    0.2250 C   0  0  0  0  0  0  0  0  0  0  0  0
   -2.4760    1.9330   -0.0050 C   0  0  0  0  0  0  0  0  0  0  0  0
   -4.8260    2.7310   -0.6050 C   0  0  0  0  0  0  0  0  0  0  0  0
   -1.8840   -3.9910    0.2600 C   0  0  0  0  0  0  0  0  0  0  0  0
    0.6560   -0.3240    0.5480 C   0  0  1  0  0  0  0  0  0  0  0  0
    0.5020    0.4440    1.8360 C   0  0  0  0  0  0  0  0  0  0  0  0
    2.1420   -0.5340    0.2540 C   0  0  2  0  0  0  0  0  0  0  0  0
    2.7540   -1.4280    1.3340 C   0  0  0  0  0  0  0  0  0  0  0  0
    2.8570    0.8190    0.2470 C   0  0  0  0  0  0  0  0  0  0  0  0
    5.0440    1.7190   -0.0740 C   0  0  0  0  0  0  0  0  0  0  0  0
   -2.0330   -0.3890    0.1500 N   0  0  0  0  0  0  0  0  0  0  0  0
   -4.4170    4.0140   -0.5300 N   0  0  0  0  0  0  0  0  0  0  0  0
   -0.0080   -1.6290    0.6740 N   0  0  0  0  0  0  0  0  0  0  0  0
    6.3620    1.6040   -0.3280 N   0  0  0  0  0  0  0  0  0  0  0  0
   -2.7350   -4.8350    0.0680 O   0  0  0  0  0  0  0  0  0  0  0  0
   -5.9810    2.4770   -0.8890 O   0  0  0  0  0  0  0  0  0  0  0  0
   -0.0990   -0.0460    2.7630 O   0  0  0  0  0  0  0  0  0  0  0  0
    1.0320    1.6710    1.9530 O   0  0  0  0  0  0  0  0  0  0  0  0
    3.6990   -1.2930   -1.7530 O   0  0  0  0  0  0  0  0  0  0  0  0
    1.6840   -0.3280   -2.3140 O   0  0  0  0  0  0  0  0  0  0  0  0
    4.2680    0.6200   -0.0320 O   0  0  0  0  0  0  0  0  0  0  0  0
    4.5550    2.8150    0.1180 O   0  0  0  0  0  0  0  0  0  0  0  0
    2.3320   -1.3270   -1.3660 S   0  0  2  0  0  0  0  0  0  0  0  0
   -5.3050    0.0750   -0.6630 H   0  0  0  0  0  0  0  0  0  0  0  0
   -4.3790   -2.6370   -0.3800 H   0  0  0  0  0  0  0  0  0  0  0  0
   -0.5950    1.1510    0.4730 H   0  0  0  0  0  0  0  0  0  0  0  0
   -2.1370    2.9570    0.0570 H   0  0  0  0  0  0  0  0  0  0  0  0
   -0.8770   -4.2870    0.5140 H   0  0  0  0  0  0  0  0  0  0  0  0
    0.2000    0.2380   -0.2670 H   0  0  0  0  0  0  0  0  0  0  0  0
    2.2450   -2.3920    1.3400 H   0  0  0  0  0  0  0  0  0  0  0  0
    3.8140   -1.5780    1.1250 H   0  0  0  0  0  0  0  0  0  0  0  0
    2.6400   -0.9520    2.3080 H   0  0  0  0  0  0  0  0  0  0  0  0
    2.4210    1.4560   -0.5220 H   0  0  0  0  0  0  0  0  0  0  0  0
    2.7430    1.2950    1.2210 H   0  0  0  0  0  0  0  0  0  0  0  0
   -3.4960    4.2170   -0.3040 H   0  0  0  0  0  0  0  0  0  0  0  0
   -5.0440    4.7330   -0.7030 H   0  0  0  0  0  0  0  0  0  0  0  0
    0.1100   -2.0060    1.6020 H   0  0  0  0  0  0  0  0  0  0  0  0
    6.7520    0.7290   -0.4810 H   0  0  0  0  0  0  0  0  0  0  0  0
    6.9210    2.3960   -0.3580 H   0  0  0  0  0  0  0  0  0  0  0  0
    0.9070    2.1250    2.7980 H   0  0  0  0  0  0  0  0  0  0  0  0
    1.6980   -0.6000   -3.2420 H   0  0  0  0  0  0  0  0  0  0  0  0
  1  2  2  0  0  0  0
  1  8  1  0  0  0  0
  1  9  1  0  0  0  0
  2  3  1  0  0  0  0
  3  4  2  0  0  0  0
  3 17  1  0  0  0  0
  4  5  1  0  0  0  0
  5  6  2  0  0  0  0
  5 10  1  0  0  0  0
  6 17  1  0  0  0  0
  6 19  1  0  0  0  0
  7  8  2  0  0  0  0
  7 17  1  0  0  0  0
  9 18  1  0  0  0  0
  9 22  2  0  0  0  0
 10 21  2  0  0  0  0
 11 12  1  0  0  0  0
 11 13  1  0  0  0  0
 11 19  1  0  0  0  0
 12 23  2  0  0  0  0
 12 24  1  0  0  0  0
 13 14  1  0  0  0  0
 13 15  1  0  0  0  0
 13 29  1  0  0  0  0
 15 27  1  0  0  0  0
 16 20  1  0  0  0  0
 16 27  1  0  0  0  0
 16 28  2  0  0  0  0
 25 29  2  0  0  0  0
 26 29  1  0  0  0  0
  2 30  1  0  0  0  0
  4 31  1  0  0  0  0
  7 32  1  0  0  0  0
  8 33  1  0  0  0  0
 10 34  1  0  0  0  0
 11 35  1  0  0  0  0
 14 36  1  0  0  0  0
 14 37  1  0  0  0  0
 14 38  1  0  0  0  0
 15 39  1  0  0  0  0
 15 40  1  0  0  0  0
 18 41  1  0  0  0  0
 18 42  1  0  0  0  0
 19 43  1  0  0  0  0
 20 44  1  0  0  0  0
 20 45  1  0  0  0  0
 24 46  1  0  0  0  0
 26 47  1  0  0  0  0
M  END
> <OPENEYE_ISO_SMILES>
C[C@](COC(=O)N)([C@H](C(=O)O)Nc1c(cc2n1ccc(c2)C(=O)N)C=O)[S@](=O)O

> <OPENEYE_INCHI>
InChI=1S/C16H18N4O8S/c1-16(29(26)27,7-28-15(18)25)11(14(23)24)19-13-9(6-21)5-10-4-8(12(17)22)2-3-20(10)13/h2-6,11,19H,7H2,1H3,(H2,17,22)(H2,18,25)(H,23,24)(H,26,27)/t11-,16-/m0/s1

> <OPENEYE_INCHIKEY>
WVRCRSIVCWLCEG-ZBEGNZNMSA-N

> <FORMULA>
C16H18N4O8S

$$$$
