MXF
  -OEChem-07282321083D

 51 52  0     1  0  0  0  0  0999 V2000
   -4.3370    3.1290   -1.3370 C   0  0  0  0  0  0  0  0  0  0  0  0
   -5.1700    2.0700   -1.1860 C   0  0  0  0  0  0  0  0  0  0  0  0
   -4.6710    0.8660   -0.6310 C   0  0  0  0  0  0  0  0  0  0  0  0
   -5.2720   -0.3310   -0.3690 C   0  0  0  0  0  0  0  0  0  0  0  0
   -4.2850   -1.1840    0.1910 C   0  0  0  0  0  0  0  0  0  0  0  0
   -3.0980   -0.4530    0.2470 C   0  0  0  0  0  0  0  0  0  0  0  0
   -2.5140    1.8790   -0.4190 C   0  0  0  0  0  0  0  0  0  0  0  0
   -2.9860    3.0220   -0.9440 C   0  0  0  0  0  0  0  0  0  0  0  0
   -4.4710   -2.5230    0.6130 C   0  0  0  0  0  0  0  0  0  0  0  0
   -0.8110    0.0500    0.4480 C   0  0  1  0  0  0  0  0  0  0  0  0
   -0.7880    1.1050    1.5240 C   0  0  0  0  0  0  0  0  0  0  0  0
    0.5330   -0.6810    0.4210 C   0  0  2  0  0  0  0  0  0  0  0  0
    0.7250   -1.4440    1.7330 C   0  0  0  0  0  0  0  0  0  0  0  0
    1.6640    0.3370    0.2540 C   0  0  0  0  0  0  0  0  0  0  0  0
    4.0440    0.4000    0.0860 C   0  0  0  0  0  0  0  0  0  0  0  0
   -3.3400    0.7870   -0.2520 N   0  0  0  0  0  0  0  0  0  0  0  0
   -1.8850   -0.9110    0.7280 N   0  0  0  0  0  0  0  0  0  0  0  0
    5.2590   -0.1810    0.0540 N   0  0  0  0  0  0  0  0  0  0  0  0
   -5.5610   -3.0470    0.5100 O   0  0  0  0  0  0  0  0  0  0  0  0
   -1.5840    1.0610    2.4310 O   0  0  0  0  0  0  0  0  0  0  0  0
    0.1190    2.0940    1.4740 O   0  0  0  0  0  0  0  0  0  0  0  0
    1.8810   -2.3380   -1.1490 O   0  0  0  0  0  0  0  0  0  0  0  0
    0.3600   -0.9460   -2.1770 O   0  0  0  0  0  0  0  0  0  0  0  0
    2.9390   -0.3570    0.2280 O   0  0  0  0  0  0  0  0  0  0  0  0
    3.9440    1.6070   -0.0150 O   0  0  0  0  0  0  0  0  0  0  0  0
    0.5590   -1.8480   -0.9670 S   0  0  2  0  0  0  0  0  0  0  0  0
    6.4610    0.6420   -0.1010 C   0  0  0  0  0  0  0  0  0  0  0  0
    7.6990   -0.2580   -0.1050 C   0  0  0  0  0  0  0  0  0  0  0  0
    8.9030    0.5680   -0.2610 N   0  0  0  0  0  0  0  0  0  0  0  0
   -4.7050    4.0510   -1.7630 H   0  0  0  0  0  0  0  0  0  0  0  0
   -6.2060    2.1450   -1.4850 H   0  0  0  0  0  0  0  0  0  0  0  0
   -6.3060   -0.5830   -0.5530 H   0  0  0  0  0  0  0  0  0  0  0  0
   -1.4780    1.8150   -0.1230 H   0  0  0  0  0  0  0  0  0  0  0  0
   -2.3250    3.8670   -1.0660 H   0  0  0  0  0  0  0  0  0  0  0  0
   -3.6420   -3.0780    1.0270 H   0  0  0  0  0  0  0  0  0  0  0  0
   -0.9880    0.5210   -0.5190 H   0  0  0  0  0  0  0  0  0  0  0  0
   -0.0810   -2.1690    1.8520 H   0  0  0  0  0  0  0  0  0  0  0  0
    1.6820   -1.9650    1.7140 H   0  0  0  0  0  0  0  0  0  0  0  0
    0.7090   -0.7430    2.5670 H   0  0  0  0  0  0  0  0  0  0  0  0
    1.5270    0.8810   -0.6810 H   0  0  0  0  0  0  0  0  0  0  0  0
    1.6480    1.0380    1.0880 H   0  0  0  0  0  0  0  0  0  0  0  0
   -1.9410   -1.1140    1.7150 H   0  0  0  0  0  0  0  0  0  0  0  0
    5.3380   -1.1450    0.1350 H   0  0  0  0  0  0  0  0  0  0  0  0
    0.0940    2.7480    2.1860 H   0  0  0  0  0  0  0  0  0  0  0  0
    0.3480   -1.4170   -3.0210 H   0  0  0  0  0  0  0  0  0  0  0  0
    6.4070    1.1900   -1.0410 H   0  0  0  0  0  0  0  0  0  0  0  0
    6.5280    1.3470    0.7270 H   0  0  0  0  0  0  0  0  0  0  0  0
    7.7530   -0.8060    0.8350 H   0  0  0  0  0  0  0  0  0  0  0  0
    7.6320   -0.9630   -0.9330 H   0  0  0  0  0  0  0  0  0  0  0  0
    9.7350   -0.0040   -0.2670 H   0  0  0  0  0  0  0  0  0  0  0  0
    8.8480    1.1350   -1.0940 H   0  0  0  0  0  0  0  0  0  0  0  0
  1  2  2  0  0  0  0
  1  8  1  0  0  0  0
  2  3  1  0  0  0  0
  3  4  2  0  0  0  0
  3 16  1  0  0  0  0
  4  5  1  0  0  0  0
  5  6  2  0  0  0  0
  5  9  1  0  0  0  0
  6 16  1  0  0  0  0
  6 17  1  0  0  0  0
  7  8  2  0  0  0  0
  7 16  1  0  0  0  0
  9 19  2  0  0  0  0
 10 11  1  0  0  0  0
 10 12  1  0  0  0  0
 10 17  1  0  0  0  0
 11 20  2  0  0  0  0
 11 21  1  0  0  0  0
 12 13  1  0  0  0  0
 12 14  1  0  0  0  0
 12 26  1  0  0  0  0
 14 24  1  0  0  0  0
 15 18  1  0  0  0  0
 15 24  1  0  0  0  0
 15 25  2  0  0  0  0
 18 27  1  0  0  0  0
 22 26  2  0  0  0  0
 23 26  1  0  0  0  0
 27 28  1  0  0  0  0
 28 29  1  0  0  0  0
  1 30  1  0  0  0  0
  2 31  1  0  0  0  0
  4 32  1  0  0  0  0
  7 33  1  0  0  0  0
  8 34  1  0  0  0  0
  9 35  1  0  0  0  0
 10 36  1  0  0  0  0
 13 37  1  0  0  0  0
 13 38  1  0  0  0  0
 13 39  1  0  0  0  0
 14 40  1  0  0  0  0
 14 41  1  0  0  0  0
 17 42  1  0  0  0  0
 18 43  1  0  0  0  0
 21 44  1  0  0  0  0
 23 45  1  0  0  0  0
 27 46  1  0  0  0  0
 27 47  1  0  0  0  0
 28 48  1  0  0  0  0
 28 49  1  0  0  0  0
 29 50  1  0  0  0  0
 29 51  1  0  0  0  0
M  END
> <OPENEYE_ISO_SMILES>
C[C@](COC(=O)NCCN)([C@H](C(=O)O)Nc1c(cc2n1cccc2)C=O)[S@](=O)O

> <OPENEYE_INCHI>
InChI=1S/C17H22N4O7S/c1-17(29(26)27,10-28-16(25)19-6-5-18)13(15(23)24)20-14-11(9-22)8-12-4-2-3-7-21(12)14/h2-4,7-9,13,20H,5-6,10,18H2,1H3,(H,19,25)(H,23,24)(H,26,27)/t13-,17-/m0/s1

> <OPENEYE_INCHIKEY>
UGXGYKKZKHIUJW-GUYCJALGSA-N

> <FORMULA>
C17H22N4O7S

$$$$
