MXS
  -OEChem-07282321083D

 46 47  0     1  0  0  0  0  0999 V2000
   -3.6000   -0.7250   -0.3240 C   0  0  0  0  0  0  0  0  0  0  0  0
   -2.9770   -1.6390    0.4720 C   0  0  0  0  0  0  0  0  0  0  0  0
   -1.5760   -1.8120    0.3640 C   0  0  0  0  0  0  0  0  0  0  0  0
   -0.7160   -2.6420    1.0280 C   0  0  0  0  0  0  0  0  0  0  0  0
    0.6210   -2.3740    0.4910 C   0  0  0  0  0  0  0  0  0  0  0  0
    0.4620   -1.3820   -0.4760 C   0  0  0  0  0  0  0  0  0  0  0  0
   -1.5130   -0.1330   -1.3380 C   0  0  0  0  0  0  0  0  0  0  0  0
   -2.8400    0.0370   -1.2430 C   0  0  0  0  0  0  0  0  0  0  0  0
    1.8310   -2.9970    0.8780 C   0  0  0  0  0  0  0  0  0  0  0  0
    2.5120   -0.2360   -0.3840 C   0  0  1  0  0  0  0  0  0  0  0  0
    3.8680   -0.4980   -0.9880 C   0  0  0  0  0  0  0  0  0  0  0  0
    2.2850    1.2730   -0.2750 C   0  0  0  0  0  0  0  0  0  0  0  0
    2.3530    1.9010   -1.6680 C   0  0  0  0  0  0  0  0  0  0  0  0
    0.9090    1.5390    0.3390 C   0  0  0  0  0  0  0  0  0  0  0  0
   -5.4890    0.6790    0.0160 C   0  0  0  0  0  0  0  0  0  0  0  0
   -7.2860    2.1810    0.4750 C   0  0  0  0  0  0  0  0  0  0  0  0
   -0.8570   -1.0530   -0.5440 N   0  0  0  0  0  0  0  0  0  0  0  0
    1.4730   -0.8270   -1.2380 N   0  0  0  0  0  0  0  0  0  0  0  0
   -6.8120    0.8340    0.2080 O   0  0  0  0  0  0  0  0  0  0  0  0
    1.8140   -3.9180    1.6690 O   0  0  0  0  0  0  0  0  0  0  0  0
    3.9590   -1.1130   -2.0240 O   0  0  0  0  0  0  0  0  0  0  0  0
    4.9740   -0.0470   -0.3750 O   0  0  0  0  0  0  0  0  0  0  0  0
    3.3500    1.6140    2.1290 O   0  0  0  0  0  0  0  0  0  0  0  0
    3.2060    3.4810    0.7870 O   0  0  0  0  0  0  0  0  0  0  0  0
   -4.9830   -0.5450   -0.2360 N   0  0  0  0  0  0  0  0  0  0  0  0
   -4.7500    1.6420    0.0690 O   0  0  0  0  0  0  0  0  0  0  0  0
    3.5680    2.0030    0.7800 S   0  0  2  0  0  0  0  0  0  0  0  0
   -3.5470   -2.2260    1.1770 H   0  0  0  0  0  0  0  0  0  0  0  0
   -0.9720   -3.3550    1.7980 H   0  0  0  0  0  0  0  0  0  0  0  0
   -0.9490    0.4570   -2.0460 H   0  0  0  0  0  0  0  0  0  0  0  0
   -3.3330    0.7610   -1.8740 H   0  0  0  0  0  0  0  0  0  0  0  0
    2.7700   -2.6540    0.4680 H   0  0  0  0  0  0  0  0  0  0  0  0
    2.4640   -0.6840    0.6090 H   0  0  0  0  0  0  0  0  0  0  0  0
    1.5820    1.4630   -2.3020 H   0  0  0  0  0  0  0  0  0  0  0  0
    2.1910    2.9760   -1.5900 H   0  0  0  0  0  0  0  0  0  0  0  0
    3.3330    1.7120   -2.1050 H   0  0  0  0  0  0  0  0  0  0  0  0
    0.8610    1.0910    1.3310 H   0  0  0  0  0  0  0  0  0  0  0  0
    0.7470    2.6140    0.4170 H   0  0  0  0  0  0  0  0  0  0  0  0
    0.1380    1.1000   -0.2950 H   0  0  0  0  0  0  0  0  0  0  0  0
   -6.8120    2.5600    1.3800 H   0  0  0  0  0  0  0  0  0  0  0  0
   -7.0350    2.8280   -0.3650 H   0  0  0  0  0  0  0  0  0  0  0  0
   -8.3680    2.1650    0.6110 H   0  0  0  0  0  0  0  0  0  0  0  0
    1.8680   -1.5100   -1.8680 H   0  0  0  0  0  0  0  0  0  0  0  0
    5.8210   -0.2390   -0.8010 H   0  0  0  0  0  0  0  0  0  0  0  0
    3.8020    4.0290    1.3150 H   0  0  0  0  0  0  0  0  0  0  0  0
   -5.5800   -1.3000   -0.3570 H   0  0  0  0  0  0  0  0  0  0  0  0
  1  2  2  0  0  0  0
  1  8  1  0  0  0  0
  1 25  1  0  0  0  0
  2  3  1  0  0  0  0
  3  4  2  0  0  0  0
  3 17  1  0  0  0  0
  4  5  1  0  0  0  0
  5  6  2  0  0  0  0
  5  9  1  0  0  0  0
  6 17  1  0  0  0  0
  6 18  1  0  0  0  0
  7  8  2  0  0  0  0
  7 17  1  0  0  0  0
  9 20  2  0  0  0  0
 10 11  1  0  0  0  0
 10 12  1  0  0  0  0
 10 18  1  0  0  0  0
 11 21  2  0  0  0  0
 11 22  1  0  0  0  0
 12 13  1  0  0  0  0
 12 14  1  0  0  0  0
 12 27  1  0  0  0  0
 15 19  1  0  0  0  0
 15 25  1  0  0  0  0
 15 26  2  0  0  0  0
 16 19  1  0  0  0  0
 23 27  2  0  0  0  0
 24 27  1  0  0  0  0
  2 28  1  0  0  0  0
  4 29  1  0  0  0  0
  7 30  1  0  0  0  0
  8 31  1  0  0  0  0
  9 32  1  0  0  0  0
 10 33  1  0  0  0  0
 13 34  1  0  0  0  0
 13 35  1  0  0  0  0
 13 36  1  0  0  0  0
 14 37  1  0  0  0  0
 14 38  1  0  0  0  0
 14 39  1  0  0  0  0
 16 40  1  0  0  0  0
 16 41  1  0  0  0  0
 16 42  1  0  0  0  0
 18 43  1  0  0  0  0
 22 44  1  0  0  0  0
 24 45  1  0  0  0  0
 25 46  1  0  0  0  0
M  END
> <OPENEYE_ISO_SMILES>
CC(C)([C@H](C(=O)O)Nc1c(cc2n1ccc(c2)NC(=O)OC)C=O)[S@](=O)O

> <OPENEYE_INCHI>
InChI=1S/C16H19N3O7S/c1-16(2,27(24)25)12(14(21)22)18-13-9(8-20)6-11-7-10(4-5-19(11)13)17-15(23)26-3/h4-8,12,18H,1-3H3,(H,17,23)(H,21,22)(H,24,25)/t12-/m0/s1

> <OPENEYE_INCHIKEY>
NSEWARQIMLZRTO-LBPRGKRZSA-N

> <FORMULA>
C16H19N3O7S

$$$$
