REMARK  4 active torsions:
REMARK  status: ('A' for Active; 'I' for Inactive)
REMARK    1  A    between atoms: B_1  and  C_4 
REMARK    2  A    between atoms: B_1  and  O_3 
REMARK    3  A    between atoms: B_1  and  O_2 
REMARK    4  A    between atoms: N_7  and  C_8 
ROOT
HETATM    1  C   UNL     1       2.736  -0.290  -0.001  1.00  0.00     0.004 A 
HETATM    2  C   UNL     1       2.207  -1.599   0.001  1.00  0.00     0.141 A 
HETATM    3  N   UNL     1       0.906  -1.510   0.001  1.00  0.00    -0.179 NA
HETATM    4  N   UNL     1       0.545  -0.158  -0.001  1.00  0.00    -0.227 N 
HETATM    5  C   UNL     1       1.669   0.582   0.004  1.00  0.00     0.122 A 
ENDROOT
BRANCH   4   6
HETATM    6  C   UNL     1      -0.760   0.338  -0.001  1.00  0.00     0.154 A 
HETATM    7  C   UNL     1      -1.847  -0.532   0.000  1.00  0.00     0.096 A 
HETATM    8  C   UNL     1      -3.122   0.009  -0.001  1.00  0.00     0.131 A 
HETATM    9 CL   UNL     1      -4.517  -1.025   0.001  1.00  0.00    -0.062 Cl
HETATM   10  N   UNL     1      -3.264   1.327  -0.002  1.00  0.00    -0.230 NA
HETATM   11  C   UNL     1      -2.213   2.122  -0.003  1.00  0.00     0.237 A 
HETATM   12  N   UNL     1      -0.984   1.648   0.003  1.00  0.00    -0.222 NA
ENDBRANCH   4   6
BRANCH   1  13
HETATM   13  B   UNL     1       4.257   0.100  -0.002  1.00  0.00     0.532 B 
BRANCH  13  14
HETATM   14  O   UNL     1       5.250  -0.914  -0.002  1.00  0.00    -0.433 OA
HETATM   15  H   UNL     1       4.894  -1.814  -0.005  1.00  0.00     0.185 HD
ENDBRANCH  13  14
BRANCH  13  16
HETATM   16  O   UNL     1       4.640   1.468   0.002  1.00  0.00    -0.433 OA
HETATM   17  H   UNL     1       5.596   1.609   0.005  1.00  0.00     0.185 HD
ENDBRANCH  13  16
ENDBRANCH   1  13
TORSDOF 4
