N95
  -OEChem-07282321083D

 21 22  0     0  0  0  0  0  0999 V2000
    4.2570    0.1000   -0.0020 B   0  0  0  0  0  0  0  0  0  0  0  0
    4.6400    1.4680    0.0020 O   0  0  0  0  0  0  0  0  0  0  0  0
    5.2500   -0.9140   -0.0020 O   0  0  0  0  0  0  0  0  0  0  0  0
    2.7360   -0.2900   -0.0010 C   0  0  0  0  0  0  0  0  0  0  0  0
    2.2070   -1.5990    0.0010 C   0  0  0  0  0  0  0  0  0  0  0  0
    0.9060   -1.5100    0.0010 N   0  0  0  0  0  0  0  0  0  0  0  0
    0.5450   -0.1580   -0.0010 N   0  0  0  0  0  0  0  0  0  0  0  0
   -0.7600    0.3380   -0.0010 C   0  0  0  0  0  0  0  0  0  0  0  0
   -1.8470   -0.5320   -0.0000 C   0  0  0  0  0  0  0  0  0  0  0  0
   -3.1220    0.0090   -0.0010 C   0  0  0  0  0  0  0  0  0  0  0  0
   -4.5170   -1.0250    0.0010 Cl  0  0  0  0  0  0  0  0  0  0  0  0
   -3.2640    1.3270   -0.0020 N   0  0  0  0  0  0  0  0  0  0  0  0
   -2.2130    2.1220   -0.0030 C   0  0  0  0  0  0  0  0  0  0  0  0
   -0.9840    1.6480    0.0030 N   0  0  0  0  0  0  0  0  0  0  0  0
    1.6690    0.5820    0.0040 C   0  0  0  0  0  0  0  0  0  0  0  0
    5.5960    1.6090    0.0050 H   0  0  0  0  0  0  0  0  0  0  0  0
    4.8940   -1.8140   -0.0050 H   0  0  0  0  0  0  0  0  0  0  0  0
    2.7800   -2.5150    0.0020 H   0  0  0  0  0  0  0  0  0  0  0  0
   -1.7000   -1.6020    0.0000 H   0  0  0  0  0  0  0  0  0  0  0  0
   -2.3630    3.1910   -0.0040 H   0  0  0  0  0  0  0  0  0  0  0  0
    1.7240    1.6610    0.0040 H   0  0  0  0  0  0  0  0  0  0  0  0
 10 11  1  0  0  0  0
 10 12  2  0  0  0  0
  9 10  1  0  0  0  0
 12 13  1  0  0  0  0
  8  9  2  0  0  0  0
 13 14  2  0  0  0  0
  8 14  1  0  0  0  0
  7  8  1  0  0  0  0
  6  7  1  0  0  0  0
  7 15  1  0  0  0  0
  5  6  2  0  0  0  0
  4 15  2  0  0  0  0
  4  5  1  0  0  0  0
  1  4  1  0  0  0  0
  1  3  1  0  0  0  0
  1  2  1  0  0  0  0
  2 16  1  0  0  0  0
  3 17  1  0  0  0  0
  5 18  1  0  0  0  0
  9 19  1  0  0  0  0
 13 20  1  0  0  0  0
 15 21  1  0  0  0  0
M  END
> <OPENEYE_ISO_SMILES>
B(c1cnn(c1)c2cc(ncn2)Cl)(O)O

> <OPENEYE_INCHI>
InChI=1S/C7H6BClN4O2/c9-6-1-7(11-4-10-6)13-3-5(2-12-13)8(14)15/h1-4,14-15H

> <OPENEYE_INCHIKEY>
FINXKFQNFLSJBL-UHFFFAOYSA-N

> <FORMULA>
C7H6BClN4O2

$$$$
