N9X
  -OEChem-07282321083D

 60 62  0     1  0  0  0  0  0999 V2000
    1.2160    2.3790    1.6860 N   0  0  0  0  0  0  0  0  0  0  0  0
   -3.1990    0.9680    0.5470 C   0  0  2  0  0  0  0  0  0  0  0  0
   -4.1610    3.2840   -1.0080 O   0  0  0  0  0  0  0  0  0  0  0  0
    0.8710    1.4540   -0.5320 C   0  0  0  0  0  0  0  0  0  0  0  0
    1.8630    2.2170    0.3660 C   0  0  2  0  0  0  0  0  0  0  0  0
    3.1370    1.4250    0.5120 C   0  0  0  0  0  0  0  0  0  0  0  0
    4.0720    1.4670   -0.4580 N   0  0  0  0  0  0  0  0  0  0  0  0
   -2.4900   -1.2980   -0.3530 C   0  0  0  0  0  0  0  0  0  0  0  0
    3.3210    0.7500    1.5030 O   0  0  0  0  0  0  0  0  0  0  0  0
   -3.1510   -0.5570    0.8110 C   0  0  2  0  0  0  0  0  0  0  0  0
   -4.6600   -0.8850    0.8970 C   0  0  2  0  0  0  0  0  0  0  0  0
   -4.9450   -2.2470    0.2620 C   0  0  2  0  0  0  0  0  0  0  0  0
   -4.7050   -2.1700   -1.2240 C   0  0  0  0  0  0  0  0  0  0  0  0
   -6.4010   -2.6370    0.5230 C   0  0  1  0  0  0  0  0  0  0  0  0
   -6.6860   -4.0000   -0.1110 C   0  0  0  0  0  0  0  0  0  0  0  0
   -0.3780    1.2260    0.3490 C   0  0  1  0  0  0  0  0  0  0  0  0
   -0.2460    2.3290    1.4300 C   0  0  0  0  0  0  0  0  0  0  0  0
   -4.5670    1.1850   -0.0600 C   0  0  0  0  0  0  0  0  0  0  0  0
   -4.9730    2.4080   -0.7930 C   0  0  0  0  0  0  0  0  0  0  0  0
   -5.3250    0.1820    0.1400 N   0  0  0  0  0  0  0  0  0  0  0  0
   -6.2420    2.5470   -1.2200 O   0  0  0  0  0  0  0  0  0  0  0  0
   -3.8770   -2.8820   -1.7390 O   0  0  0  0  0  0  0  0  0  0  0  0
   -6.6290   -2.7110    1.9320 O   0  0  0  0  0  0  0  0  0  0  0  0
   -1.8960    1.4540   -0.6180 S   0  0  0  0  0  0  0  0  0  0  0  0
    1.4790    3.2560    2.1120 H   0  0  0  0  0  0  0  0  0  0  0  0
   -3.1020    1.5210    1.4810 H   0  0  0  0  0  0  0  0  0  0  0  0
    0.6140    2.0530   -1.4060 H   0  0  0  0  0  0  0  0  0  0  0  0
    1.2980    0.4990   -0.8400 H   0  0  0  0  0  0  0  0  0  0  0  0
    2.0780    3.1950   -0.0650 H   0  0  0  0  0  0  0  0  0  0  0  0
    3.9550    2.0590   -1.2180 H   0  0  0  0  0  0  0  0  0  0  0  0
   -1.4390   -1.0160   -0.4140 H   0  0  0  0  0  0  0  0  0  0  0  0
   -2.5690   -2.3730   -0.1910 H   0  0  0  0  0  0  0  0  0  0  0  0
   -2.9920   -1.0340   -1.2840 H   0  0  0  0  0  0  0  0  0  0  0  0
   -2.6450   -0.7780    1.7510 H   0  0  0  0  0  0  0  0  0  0  0  0
   -4.9910   -0.8750    1.9350 H   0  0  0  0  0  0  0  0  0  0  0  0
   -4.2850   -2.9970    0.6980 H   0  0  0  0  0  0  0  0  0  0  0  0
   -5.2720   -1.4770   -1.8270 H   0  0  0  0  0  0  0  0  0  0  0  0
   -7.0620   -1.8880    0.0870 H   0  0  0  0  0  0  0  0  0  0  0  0
   -6.0260   -4.7490    0.3250 H   0  0  0  0  0  0  0  0  0  0  0  0
   -7.7240   -4.2770    0.0750 H   0  0  0  0  0  0  0  0  0  0  0  0
   -6.5120   -3.9430   -1.1860 H   0  0  0  0  0  0  0  0  0  0  0  0
   -0.3560    0.2340    0.8010 H   0  0  0  0  0  0  0  0  0  0  0  0
   -0.7850    2.0470    2.3340 H   0  0  0  0  0  0  0  0  0  0  0  0
   -0.6030    3.2850    1.0490 H   0  0  0  0  0  0  0  0  0  0  0  0
   -6.4590    3.3620   -1.6940 H   0  0  0  0  0  0  0  0  0  0  0  0
   -6.0740   -3.3590    2.3870 H   0  0  0  0  0  0  0  0  0  0  0  0
    5.2050    0.6610   -0.3690 C   0  0  0  0  0  0  0  0  0  0  0  0
    5.7740    0.3970    0.8730 C   0  0  0  0  0  0  0  0  0  0  0  0
    6.8930   -0.3980    0.9650 C   0  0  0  0  0  0  0  0  0  0  0  0
    7.4590   -0.9420   -0.1920 C   0  0  0  0  0  0  0  0  0  0  0  0
    6.8850   -0.6750   -1.4390 C   0  0  0  0  0  0  0  0  0  0  0  0
    5.7630    0.1170   -1.5220 C   0  0  0  0  0  0  0  0  0  0  0  0
    8.6580   -1.7950   -0.0980 C   0  0  0  0  0  0  0  0  0  0  0  0
    9.1560   -2.0260    0.9860 O   0  0  0  0  0  0  0  0  0  0  0  0
    9.2020   -2.3180   -1.2140 O   0  0  0  0  0  0  0  0  0  0  0  0
    5.3360    0.8180    1.7670 H   0  0  0  0  0  0  0  0  0  0  0  0
    7.3340   -0.6030    1.9300 H   0  0  0  0  0  0  0  0  0  0  0  0
    7.3200   -1.0930   -2.3350 H   0  0  0  0  0  0  0  0  0  0  0  0
    5.3190    0.3240   -2.4850 H   0  0  0  0  0  0  0  0  0  0  0  0
    9.9880   -2.8710   -1.1020 H   0  0  0  0  0  0  0  0  0  0  0  0
  1 17  1  0  0  0  0
 16 17  1  0  0  0  0
  1  5  1  0  0  0  0
 19 21  1  0  0  0  0
  6  7  1  0  0  0  0
  3 19  2  0  0  0  0
 16 24  1  0  0  0  0
  4 16  1  0  0  0  0
 18 19  1  0  0  0  0
 13 22  2  0  0  0  0
  2 24  1  0  0  0  0
  5  6  1  0  0  0  0
  6  9  2  0  0  0  0
  4  5  1  0  0  0  0
  2 18  1  0  0  0  0
 18 20  2  0  0  0  0
 12 13  1  0  0  0  0
  2 10  1  0  0  0  0
 11 20  1  0  0  0  0
 11 12  1  0  0  0  0
 12 14  1  0  0  0  0
 10 11  1  0  0  0  0
  8 10  1  0  0  0  0
 14 15  1  0  0  0  0
 14 23  1  0  0  0  0
  1 25  1  0  0  0  0
  2 26  1  0  0  0  0
  4 27  1  0  0  0  0
  4 28  1  0  0  0  0
  5 29  1  0  0  0  0
  7 30  1  0  0  0  0
  8 31  1  0  0  0  0
  8 32  1  0  0  0  0
  8 33  1  0  0  0  0
 10 34  1  0  0  0  0
 11 35  1  0  0  0  0
 12 36  1  0  0  0  0
 13 37  1  0  0  0  0
 14 38  1  0  0  0  0
 15 39  1  0  0  0  0
 15 40  1  0  0  0  0
 15 41  1  0  0  0  0
 16 42  1  0  0  0  0
 17 43  1  0  0  0  0
 17 44  1  0  0  0  0
 21 45  1  0  0  0  0
 23 46  1  0  0  0  0
  7 47  1  0  0  0  0
 47 48  1  0  0  0  0
 48 49  2  0  0  0  0
 49 50  1  0  0  0  0
 50 51  2  0  0  0  0
 51 52  1  0  0  0  0
 47 52  2  0  0  0  0
 50 53  1  0  0  0  0
 53 54  2  0  0  0  0
 53 55  1  0  0  0  0
 48 56  1  0  0  0  0
 49 57  1  0  0  0  0
 51 58  1  0  0  0  0
 52 59  1  0  0  0  0
 55 60  1  0  0  0  0
M  END
> <OPENEYE_ISO_SMILES>
C[C@H]1[C@H](C(=N[C@H]1[C@H](C=O)[C@@H](C)O)C(=O)O)S[C@H]2C[C@@H](NC2)C(=O)Nc3ccc(cc3)C(=O)O

> <OPENEYE_INCHI>
InChI=1S/C22H27N3O7S/c1-10-17(15(9-26)11(2)27)25-18(22(31)32)19(10)33-14-7-16(23-8-14)20(28)24-13-5-3-12(4-6-13)21(29)30/h3-6,9-11,14-17,19,23,27H,7-8H2,1-2H3,(H,24,28)(H,29,30)(H,31,32)/t10-,11-,14+,15-,16-,17-,19-/m1/s1

> <OPENEYE_INCHIKEY>
AKERAHWFSYYFHP-OIROVCEBSA-N

> <FORMULA>
C22H27N3O7S

$$$$
