NBF
  -OEChem-07282321083D

 36 37  0     0  0  0  0  0  0999 V2000
    4.0690   -0.1260    1.9770 C   0  0  0  0  0  0  0  0  0  0  0  0
    3.3690   -0.0160    0.6210 C   0  0  0  0  0  0  0  0  0  0  0  0
    1.9590   -0.1720    0.7990 O   0  0  0  0  0  0  0  0  0  0  0  0
    1.3950   -0.0660   -0.4280 C   0  0  0  0  0  0  0  0  0  0  0  0
    0.0120   -0.1840   -0.5680 C   0  0  0  0  0  0  0  0  0  0  0  0
   -0.8430   -0.4220    0.6020 C   0  0  0  0  0  0  0  0  0  0  0  0
   -1.1000   -1.5600    0.9470 O   0  0  0  0  0  0  0  0  0  0  0  0
   -1.3450    0.6200    1.2940 N   0  0  0  0  0  0  0  0  0  0  0  0
   -2.1980    0.3830    2.4610 C   0  0  0  0  0  0  0  0  0  0  0  0
   -1.3070    0.2940    3.7510 B   0  0  0  0  0  0  0  0  0  0  0  0
   -1.9110    0.0670    5.0160 O   0  0  0  0  0  0  0  0  0  0  0  0
    0.1010    0.4400    3.6520 O   0  0  0  0  0  0  0  0  0  0  0  0
   -0.5670   -0.0590   -1.9050 C   0  0  0  0  0  0  0  0  0  0  0  0
    0.2930    0.1650   -3.0060 C   0  0  0  0  0  0  0  0  0  0  0  0
   -0.2560    0.2820   -4.2930 C   0  0  0  0  0  0  0  0  0  0  0  0
   -1.6040    0.1770   -4.4620 C   0  0  0  0  0  0  0  0  0  0  0  0
   -2.4470   -0.0430   -3.3770 C   0  0  0  0  0  0  0  0  0  0  0  0
   -1.9470   -0.1610   -2.1140 C   0  0  0  0  0  0  0  0  0  0  0  0
    1.6800    0.2680   -2.7930 C   0  0  0  0  0  0  0  0  0  0  0  0
    2.2020    0.1550   -1.5450 C   0  0  0  0  0  0  0  0  0  0  0  0
    5.1440   -0.0070    1.8410 H   0  0  0  0  0  0  0  0  0  0  0  0
    3.6980    0.6520    2.6420 H   0  0  0  0  0  0  0  0  0  0  0  0
    3.8640   -1.1040    2.4130 H   0  0  0  0  0  0  0  0  0  0  0  0
    3.5740    0.9610    0.1850 H   0  0  0  0  0  0  0  0  0  0  0  0
    3.7400   -0.7960   -0.0430 H   0  0  0  0  0  0  0  0  0  0  0  0
   -1.1400    1.5270    1.0190 H   0  0  0  0  0  0  0  0  0  0  0  0
   -2.9070    1.2040    2.5650 H   0  0  0  0  0  0  0  0  0  0  0  0
   -2.7420   -0.5520    2.3290 H   0  0  0  0  0  0  0  0  0  0  0  0
   -1.1960    0.0470    5.6670 H   0  0  0  0  0  0  0  0  0  0  0  0
    0.3020    0.5840    2.7170 H   0  0  0  0  0  0  0  0  0  0  0  0
    0.3850    0.4540   -5.1440 H   0  0  0  0  0  0  0  0  0  0  0  0
   -2.0240    0.2680   -5.4530 H   0  0  0  0  0  0  0  0  0  0  0  0
   -3.5130   -0.1210   -3.5380 H   0  0  0  0  0  0  0  0  0  0  0  0
   -2.6110   -0.3320   -1.2800 H   0  0  0  0  0  0  0  0  0  0  0  0
    2.3370    0.4400   -3.6330 H   0  0  0  0  0  0  0  0  0  0  0  0
    3.2710    0.2400   -1.4130 H   0  0  0  0  0  0  0  0  0  0  0  0
  1  2  1  0  0  0  0
  1 21  1  0  0  0  0
  1 22  1  0  0  0  0
  1 23  1  0  0  0  0
  2  3  1  0  0  0  0
  2 24  1  0  0  0  0
  2 25  1  0  0  0  0
  3  4  1  0  0  0  0
  4  5  2  0  0  0  0
  4 20  1  0  0  0  0
  5  6  1  0  0  0  0
  5 13  1  0  0  0  0
  6  7  2  0  0  0  0
  6  8  1  0  0  0  0
  8  9  1  0  0  0  0
  8 26  1  0  0  0  0
  9 10  1  0  0  0  0
  9 27  1  0  0  0  0
  9 28  1  0  0  0  0
 10 11  1  0  0  0  0
 10 12  1  0  0  0  0
 11 29  1  0  0  0  0
 12 30  1  0  0  0  0
 13 14  2  0  0  0  0
 13 18  1  0  0  0  0
 14 15  1  0  0  0  0
 14 19  1  0  0  0  0
 15 16  2  0  0  0  0
 15 31  1  0  0  0  0
 16 17  1  0  0  0  0
 16 32  1  0  0  0  0
 17 18  2  0  0  0  0
 17 33  1  0  0  0  0
 18 34  1  0  0  0  0
 19 20  2  0  0  0  0
 19 35  1  0  0  0  0
 20 36  1  0  0  0  0
M  END
> <OPENEYE_ISO_SMILES>
B(CNC(=O)c1c2ccccc2ccc1OCC)(O)O

> <OPENEYE_INCHI>
InChI=1S/C14H16BNO4/c1-2-20-12-8-7-10-5-3-4-6-11(10)13(12)14(17)16-9-15(18)19/h3-8,18-19H,2,9H2,1H3,(H,16,17)

> <OPENEYE_INCHIKEY>
VGXJNGVFESCMME-UHFFFAOYSA-N

> <FORMULA>
C14H16BNO4

$$$$
