REMARK  8 active torsions:
REMARK  status: ('A' for Active; 'I' for Inactive)
REMARK    1  A    between atoms: C_1  and  CA_4 
REMARK       I    between atoms: N_2  and  C_23 
REMARK    2  A    between atoms: N_2  and  CA_4 
REMARK    3  A    between atoms: CA_4  and  C_5 
REMARK    4  A    between atoms: O_9  and  C_22 
REMARK    5  A    between atoms: C_18  and  O_20 
REMARK    6  A    between atoms: O_20  and  C_24 
REMARK    7  A    between atoms: C_22  and  CA_28 
REMARK    8  A    between atoms: C_23  and  C_25 
ROOT
HETATM    1  N   UNL     1       0.306   0.215  -0.471  1.00  0.00    -0.343 N 
HETATM    2  O   UNL     1       1.560   0.320  -2.302  1.00  0.00    -0.268 OA
HETATM    3  C   UNL     1       1.498   0.160  -1.098  1.00  0.00     0.256 C 
HETATM    4  H   UNL     1       0.257   0.087   0.489  1.00  0.00     0.163 HD
ENDROOT
BRANCH   1   5
HETATM    5  CA  UNL     1      -0.915   0.467  -1.240  1.00  0.00     0.189 C 
BRANCH   5   6
HETATM    6  C   UNL     1      -1.101   1.952  -1.414  1.00  0.00     0.259 C 
HETATM    7  O   UNL     1      -0.300   2.721  -0.941  1.00  0.00    -0.305 OA
ENDBRANCH   5   6
BRANCH   5   8
HETATM    8  C   UNL     1      -2.117  -0.114  -0.493  1.00  0.00     0.312 C 
HETATM    9  S   UNL     1      -2.452   0.823   1.056  1.00  0.00    -0.119 SA
HETATM   10  C   UNL     1      -4.248   0.440   1.085  1.00  0.00     0.044 C 
HETATM   11  C   UNL     1      -5.060   1.685   1.447  1.00  0.00     0.029 C 
HETATM   12  C   UNL     1      -4.541  -0.696   2.067  1.00  0.00     0.029 C 
HETATM   13  CA  UNL     1      -4.546   0.000  -0.362  1.00  0.00     0.336 C 
HETATM   14  N   UNL     1      -3.381   0.122  -1.244  1.00  0.00     0.116 N 
HETATM   15  H   UNL     1      -3.367   1.020  -1.703  1.00  0.00     0.318 HD
BRANCH  13  16
HETATM   16  C   UNL     1      -4.999  -1.437  -0.350  1.00  0.00     0.175 C 
HETATM   17  OXT UNL     1      -4.248  -2.310  -0.716  1.00  0.00    -0.648 OA
BRANCH  16  18
HETATM   18  O   UNL     1      -6.236  -1.747   0.067  1.00  0.00    -0.775 OA
HETATM   19  H   UNL     1      -6.482  -2.682   0.057  1.00  0.00     0.167 HD
ENDBRANCH  16  18
ENDBRANCH  13  16
ENDBRANCH   5   8
ENDBRANCH   1   5
BRANCH   3  20
HETATM   20  C   UNL     1       2.724  -0.092  -0.326  1.00  0.00     0.076 A 
HETATM   21  C   UNL     1       3.458   0.965   0.213  1.00  0.00     0.085 A 
HETATM   22  C   UNL     1       4.621   0.717   0.945  1.00  0.00     0.039 A 
HETATM   23  C   UNL     1       5.069  -0.545   1.168  1.00  0.00     0.015 A 
HETATM   24  C   UNL     1       4.372  -1.657   0.664  1.00  0.00    -0.025 A 
HETATM   25  C   UNL     1       4.828  -2.967   0.889  1.00  0.00     0.012 A 
HETATM   26  C   UNL     1       3.193  -1.457  -0.095  1.00  0.00    -0.007 A 
HETATM   27  C   UNL     1       4.128  -4.021   0.385  1.00  0.00     0.001 A 
HETATM   28  C   UNL     1       2.963  -3.821  -0.351  1.00  0.00     0.001 A 
HETATM   29  C   UNL     1       2.495  -2.563  -0.593  1.00  0.00     0.013 A 
BRANCH  21  30
HETATM   30  O   UNL     1       3.041   2.241   0.024  1.00  0.00    -0.350 OA
BRANCH  30  31
HETATM   31  C   UNL     1       3.838   3.277   0.601  1.00  0.00     0.171 C 
HETATM   32  C   UNL     1       3.214   4.637   0.284  1.00  0.00     0.034 C 
ENDBRANCH  30  31
ENDBRANCH  21  30
ENDBRANCH   3  20
TORSDOF 8
