NFF
  -OEChem-07282321083D

 53 55  0     1  0  0  0  0  0999 V2000
   -1.1010    1.9520   -1.4140 C   0  0  0  0  0  0  0  0  0  0  0  0
    0.3060    0.2150   -0.4710 N   0  0  0  0  0  0  0  0  0  0  0  0
   -0.3000    2.7210   -0.9410 O   0  0  0  0  0  0  0  0  0  0  0  0
   -0.9150    0.4670   -1.2400 C   0  0  1  0  0  0  0  0  0  0  0  0
   -2.1170   -0.1140   -0.4930 C   0  0  2  0  0  0  0  0  0  0  0  0
    3.2140    4.6370    0.2840 C   0  0  0  0  0  0  0  0  0  0  0  0
   -5.0600    1.6850    1.4470 C   0  0  0  0  0  0  0  0  0  0  0  0
   -4.5410   -0.6960    2.0670 C   0  0  0  0  0  0  0  0  0  0  0  0
   -6.2360   -1.7470    0.0670 O   0  0  0  0  0  0  0  0  0  0  0  0
    1.5600    0.3200   -2.3020 O   0  0  0  0  0  0  0  0  0  0  0  0
   -4.2480   -2.3100   -0.7160 O   0  0  0  0  0  0  0  0  0  0  0  0
    4.1280   -4.0210    0.3850 C   0  0  0  0  0  0  0  0  0  0  0  0
    2.9630   -3.8210   -0.3510 C   0  0  0  0  0  0  0  0  0  0  0  0
    4.6210    0.7170    0.9450 C   0  0  0  0  0  0  0  0  0  0  0  0
    4.8280   -2.9670    0.8890 C   0  0  0  0  0  0  0  0  0  0  0  0
    2.4950   -2.5630   -0.5930 C   0  0  0  0  0  0  0  0  0  0  0  0
    5.0690   -0.5450    1.1680 C   0  0  0  0  0  0  0  0  0  0  0  0
    3.8380    3.2770    0.6010 C   0  0  0  0  0  0  0  0  0  0  0  0
   -3.3810    0.1220   -1.2440 N   0  0  0  0  0  0  0  0  0  0  0  0
    3.0410    2.2410    0.0240 O   0  0  0  0  0  0  0  0  0  0  0  0
   -2.4520    0.8230    1.0560 S   0  0  0  0  0  0  0  0  0  0  0  0
   -4.9990   -1.4370   -0.3500 C   0  0  0  0  0  0  0  0  0  0  0  0
    1.4980    0.1600   -1.0980 C   0  0  0  0  0  0  0  0  0  0  0  0
    3.4580    0.9650    0.2130 C   0  0  0  0  0  0  0  0  0  0  0  0
    2.7240   -0.0920   -0.3260 C   0  0  0  0  0  0  0  0  0  0  0  0
    4.3720   -1.6570    0.6640 C   0  0  0  0  0  0  0  0  0  0  0  0
    3.1930   -1.4570   -0.0950 C   0  0  0  0  0  0  0  0  0  0  0  0
   -4.5460    0.0000   -0.3620 C   0  0  1  0  0  0  0  0  0  0  0  0
   -4.2480    0.4400    1.0850 C   0  0  0  0  0  0  0  0  0  0  0  0
   -1.9540    2.3290   -1.9600 H   0  0  0  0  0  0  0  0  0  0  0  0
    0.2570    0.0870    0.4890 H   0  0  0  0  0  0  0  0  0  0  0  0
   -0.8320   -0.0070   -2.2190 H   0  0  0  0  0  0  0  0  0  0  0  0
   -1.9740   -1.1750   -0.2880 H   0  0  0  0  0  0  0  0  0  0  0  0
    3.1680    4.7730   -0.7970 H   0  0  0  0  0  0  0  0  0  0  0  0
    2.2060    4.6800    0.6980 H   0  0  0  0  0  0  0  0  0  0  0  0
    3.8220    5.4280    0.7240 H   0  0  0  0  0  0  0  0  0  0  0  0
   -4.8050    2.0040    2.4570 H   0  0  0  0  0  0  0  0  0  0  0  0
   -4.8290    2.4860    0.7440 H   0  0  0  0  0  0  0  0  0  0  0  0
   -6.1230    1.4540    1.3970 H   0  0  0  0  0  0  0  0  0  0  0  0
   -5.6000   -0.9510    2.0230 H   0  0  0  0  0  0  0  0  0  0  0  0
   -3.9460   -1.5690    1.8010 H   0  0  0  0  0  0  0  0  0  0  0  0
   -4.2860   -0.3770    3.0780 H   0  0  0  0  0  0  0  0  0  0  0  0
   -6.4820   -2.6820    0.0570 H   0  0  0  0  0  0  0  0  0  0  0  0
    4.4780   -5.0270    0.5640 H   0  0  0  0  0  0  0  0  0  0  0  0
    2.4240   -4.6740   -0.7370 H   0  0  0  0  0  0  0  0  0  0  0  0
    5.1730    1.5510    1.3530 H   0  0  0  0  0  0  0  0  0  0  0  0
    5.7290   -3.1370    1.4590 H   0  0  0  0  0  0  0  0  0  0  0  0
    1.5910   -2.4220   -1.1670 H   0  0  0  0  0  0  0  0  0  0  0  0
    5.9730   -0.6960    1.7400 H   0  0  0  0  0  0  0  0  0  0  0  0
    4.8450    3.2340    0.1860 H   0  0  0  0  0  0  0  0  0  0  0  0
    3.8840    3.1410    1.6810 H   0  0  0  0  0  0  0  0  0  0  0  0
   -3.3670    1.0200   -1.7030 H   0  0  0  0  0  0  0  0  0  0  0  0
   -5.3520    0.6190   -0.7560 H   0  0  0  0  0  0  0  0  0  0  0  0
  1  3  2  0  0  0  0
  1  4  1  0  0  0  0
  1 30  1  0  0  0  0
  2 23  1  0  0  0  0
  2  4  1  0  0  0  0
  2 31  1  0  0  0  0
  4  5  1  0  0  0  0
  4 32  1  0  0  0  0
  5 21  1  0  0  0  0
  5 19  1  0  0  0  0
  5 33  1  0  0  0  0
  6 18  1  0  0  0  0
  6 34  1  0  0  0  0
  6 35  1  0  0  0  0
  6 36  1  0  0  0  0
  7 29  1  0  0  0  0
  7 37  1  0  0  0  0
  7 38  1  0  0  0  0
  7 39  1  0  0  0  0
  8 29  1  0  0  0  0
  8 40  1  0  0  0  0
  8 41  1  0  0  0  0
  8 42  1  0  0  0  0
  9 22  1  0  0  0  0
  9 43  1  0  0  0  0
 10 23  2  0  0  0  0
 11 22  2  0  0  0  0
 12 15  2  0  0  0  0
 12 13  1  0  0  0  0
 12 44  1  0  0  0  0
 13 16  2  0  0  0  0
 13 45  1  0  0  0  0
 14 17  1  0  0  0  0
 14 24  2  0  0  0  0
 14 46  1  0  0  0  0
 15 26  1  0  0  0  0
 15 47  1  0  0  0  0
 16 27  1  0  0  0  0
 16 48  1  0  0  0  0
 17 26  2  0  0  0  0
 17 49  1  0  0  0  0
 18 20  1  0  0  0  0
 18 50  1  0  0  0  0
 18 51  1  0  0  0  0
 19 28  1  0  0  0  0
 19 52  1  0  0  0  0
 20 24  1  0  0  0  0
 21 29  1  0  0  0  0
 22 28  1  0  0  0  0
 23 25  1  0  0  0  0
 24 25  1  0  0  0  0
 25 27  2  0  0  0  0
 26 27  1  0  0  0  0
 28 29  1  0  0  0  0
 28 53  1  0  0  0  0
M  END
> <OPENEYE_ISO_SMILES>
CCOc1ccc2ccccc2c1C(=O)N[C@H](C=O)[C@@H]3N[C@H](C(S3)(C)C)C(=O)O

> <OPENEYE_INCHI>
InChI=1S/C21H24N2O5S/c1-4-28-15-10-9-12-7-5-6-8-13(12)16(15)18(25)22-14(11-24)19-23-17(20(26)27)21(2,3)29-19/h5-11,14,17,19,23H,4H2,1-3H3,(H,22,25)(H,26,27)/t14-,17+,19-/m1/s1

> <OPENEYE_INCHIKEY>
XDLYHUOUOKHAMD-DKSSEZFCSA-N

> <FORMULA>
C21H24N2O5S

$$$$
