NL9
  -OEChem-07282321083D

 23 24  0     0  0  0  0  0  0999 V2000
    3.9130   -0.8070   -0.0010 B   0  0  0  0  0  0  0  0  0  0  0  0
    5.2070   -0.2230   -0.0010 O   0  0  0  0  0  0  0  0  0  0  0  0
    3.7720   -2.2200    0.0050 O   0  0  0  0  0  0  0  0  0  0  0  0
    2.6380    0.1100    0.0000 C   0  0  0  0  0  0  0  0  0  0  0  0
    2.6210    1.5210    0.0000 C   0  0  0  0  0  0  0  0  0  0  0  0
    1.3770    1.9120    0.0010 N   0  0  0  0  0  0  0  0  0  0  0  0
    0.5490    0.7830    0.0010 N   0  0  0  0  0  0  0  0  0  0  0  0
   -0.8530    0.7950    0.0010 C   0  0  0  0  0  0  0  0  0  0  0  0
   -1.5380    2.0030    0.0010 C   0  0  0  0  0  0  0  0  0  0  0  0
   -2.9200    2.0120    0.0010 C   0  0  0  0  0  0  0  0  0  0  0  0
   -3.6210    0.8210    0.0010 C   0  0  0  0  0  0  0  0  0  0  0  0
   -2.9410   -0.3850    0.0010 C   0  0  0  0  0  0  0  0  0  0  0  0
   -3.8250   -1.8790    0.0000 Cl  0  0  0  0  0  0  0  0  0  0  0  0
   -1.5590   -0.4000   -0.0050 C   0  0  0  0  0  0  0  0  0  0  0  0
    1.3260   -0.3140   -0.0050 C   0  0  0  0  0  0  0  0  0  0  0  0
    5.9290   -0.8660   -0.0020 H   0  0  0  0  0  0  0  0  0  0  0  0
    4.6110   -2.6990    0.0030 H   0  0  0  0  0  0  0  0  0  0  0  0
    3.4880    2.1660    0.0010 H   0  0  0  0  0  0  0  0  0  0  0  0
   -0.9920    2.9340    0.0020 H   0  0  0  0  0  0  0  0  0  0  0  0
   -3.4530    2.9510    0.0010 H   0  0  0  0  0  0  0  0  0  0  0  0
   -4.7010    0.8310    0.0020 H   0  0  0  0  0  0  0  0  0  0  0  0
   -1.0280   -1.3410   -0.0100 H   0  0  0  0  0  0  0  0  0  0  0  0
    0.9850   -1.3390   -0.0100 H   0  0  0  0  0  0  0  0  0  0  0  0
  1  3  1  0  0  0  0
  1  2  1  0  0  0  0
  1  4  1  0  0  0  0
  4  5  1  0  0  0  0
  4 15  2  0  0  0  0
  5  6  2  0  0  0  0
  7 15  1  0  0  0  0
  6  7  1  0  0  0  0
  7  8  1  0  0  0  0
  8  9  2  0  0  0  0
  8 14  1  0  0  0  0
  9 10  1  0  0  0  0
 12 14  2  0  0  0  0
 10 11  2  0  0  0  0
 11 12  1  0  0  0  0
 12 13  1  0  0  0  0
  2 16  1  0  0  0  0
  3 17  1  0  0  0  0
  5 18  1  0  0  0  0
  9 19  1  0  0  0  0
 10 20  1  0  0  0  0
 11 21  1  0  0  0  0
 14 22  1  0  0  0  0
 15 23  1  0  0  0  0
M  END
> <OPENEYE_ISO_SMILES>
B(c1cnn(c1)c2cccc(c2)Cl)(O)O

> <OPENEYE_INCHI>
InChI=1S/C9H8BClN2O2/c11-8-2-1-3-9(4-8)13-6-7(5-12-13)10(14)15/h1-6,14-15H

> <OPENEYE_INCHIKEY>
QQIIJLJSZUIAKB-UHFFFAOYSA-N

> <FORMULA>
C9H8BClN2O2

$$$$
