REMARK  4 active torsions:
REMARK  status: ('A' for Active; 'I' for Inactive)
REMARK    1  A    between atoms: B_1  and  O_2 
REMARK    2  A    between atoms: B_1  and  O_3 
REMARK    3  A    between atoms: B_1  and  C_4 
REMARK    4  A    between atoms: C_6  and  N_7 
ROOT
HETATM    1  C   UNL     1       1.158  -0.250   0.000  1.00  0.00    -0.030 A 
HETATM    2  C   UNL     1      -0.031   0.477   0.006  1.00  0.00     0.036 A 
HETATM    3  C   UNL     1      -1.242  -0.186   0.000  1.00  0.00     0.102 A 
HETATM    4  C   UNL     1      -1.276  -1.569   0.000  1.00  0.00     0.036 A 
HETATM    5  C   UNL     1      -0.098  -2.295   0.000  1.00  0.00     0.002 A 
HETATM    6  C   UNL     1       1.118  -1.643  -0.001  1.00  0.00     0.001 A 
ENDROOT
BRANCH   1   7
HETATM    7  B   UNL     1       2.538   0.499  -0.001  1.00  0.00     0.529 B 
BRANCH   7   8
HETATM    8  O   UNL     1       3.749  -0.244  -0.001  1.00  0.00    -0.433 OA
HETATM    9  H   UNL     1       4.471   0.399  -0.001  1.00  0.00     0.185 HD
ENDBRANCH   7   8
BRANCH   7  10
HETATM   10  O   UNL     1       2.577   1.918   0.000  1.00  0.00    -0.433 OA
HETATM   11  H   UNL     1       3.510   2.173  -0.001  1.00  0.00     0.185 HD
ENDBRANCH   7  10
ENDBRANCH   1   7
BRANCH   3  12
HETATM   12  N   UNL     1      -2.505   0.584  -0.001  1.00  0.00    -0.116 N 
HETATM   13  O   UNL     1      -3.574   0.001  -0.001  1.00  0.00    -0.532 OA
HETATM   14  O   UNL     1      -2.477   1.802  -0.001  1.00  0.00    -0.532 OA
ENDBRANCH   3  12
TORSDOF 4
