NPB
  -OEChem-07282321083D

 18 18  0     0  0  0  0  0  0999 V2000
    2.5380    0.4990   -0.0010 B   0  0  0  0  0  0  0  0  0  0  0  0
    3.7490   -0.2440   -0.0010 O   0  0  0  0  0  0  0  0  0  0  0  0
    2.5770    1.9180    0.0000 O   0  0  0  0  0  0  0  0  0  0  0  0
    1.1580   -0.2500    0.0000 C   0  0  0  0  0  0  0  0  0  0  0  0
   -0.0310    0.4770    0.0060 C   0  0  0  0  0  0  0  0  0  0  0  0
   -1.2420   -0.1860    0.0000 C   0  0  0  0  0  0  0  0  0  0  0  0
   -2.5050    0.5840   -0.0010 N   0  3  0  0  0  0  0  0  0  0  0  0
   -3.5740    0.0010   -0.0010 O   0  0  0  0  0  0  0  0  0  0  0  0
   -2.4770    1.8020   -0.0010 O   0  5  0  0  0  0  0  0  0  0  0  0
   -1.2760   -1.5690    0.0000 C   0  0  0  0  0  0  0  0  0  0  0  0
   -0.0980   -2.2950    0.0000 C   0  0  0  0  0  0  0  0  0  0  0  0
    1.1180   -1.6430   -0.0010 C   0  0  0  0  0  0  0  0  0  0  0  0
    4.4710    0.3990   -0.0010 H   0  0  0  0  0  0  0  0  0  0  0  0
    3.5100    2.1730   -0.0010 H   0  0  0  0  0  0  0  0  0  0  0  0
   -0.0060    1.5570    0.0060 H   0  0  0  0  0  0  0  0  0  0  0  0
   -2.2250   -2.0830    0.0010 H   0  0  0  0  0  0  0  0  0  0  0  0
   -0.1300   -3.3750    0.0000 H   0  0  0  0  0  0  0  0  0  0  0  0
    2.0360   -2.2110   -0.0010 H   0  0  0  0  0  0  0  0  0  0  0  0
  1  2  1  0  0  0  0
  1  3  1  0  0  0  0
  1  4  1  0  0  0  0
  2 13  1  0  0  0  0
  3 14  1  0  0  0  0
  4  5  2  0  0  0  0
  4 12  1  0  0  0  0
  5  6  1  0  0  0  0
  5 15  1  0  0  0  0
  6  7  1  0  0  0  0
  6 10  2  0  0  0  0
  7  8  2  0  0  0  0
  7  9  1  0  0  0  0
 10 11  1  0  0  0  0
 10 16  1  0  0  0  0
 11 12  2  0  0  0  0
 11 17  1  0  0  0  0
 12 18  1  0  0  0  0
M  CHG  2   7   1   9  -1
M  END
> <OPENEYE_ISO_SMILES>
B(c1cccc(c1)[N+](=O)[O-])(O)O

> <OPENEYE_INCHI>
InChI=1S/C6H6BNO4/c9-7(10)5-2-1-3-6(4-5)8(11)12/h1-4,9-10H

> <OPENEYE_INCHIKEY>
ZNRGSYUVFVNSAW-UHFFFAOYSA-N

> <FORMULA>
C6H6BNO4

$$$$
