REMARK  8 active torsions:
REMARK  status: ('A' for Active; 'I' for Inactive)
REMARK    1  A    between atoms: CA_1  and  C_13 
REMARK    2  A    between atoms: CA_1  and  C_12 
REMARK    3  A    between atoms: CA_1  and  N_19 
REMARK    4  A    between atoms: C_4  and  CA_8 
REMARK    5  A    between atoms: C_4  and  OXT_22 
REMARK    6  A    between atoms: C_9  and  CA_10 
REMARK    7  A    between atoms: CA_10  and  N_18 
REMARK    8  A    between atoms: CA_10  and  C_11 
REMARK       I    between atoms: C_12  and  N_18 
ROOT
HETATM    1  CA  UNL     1       0.123  -1.086   0.552  1.00  0.00     0.189 C 
ENDROOT
BRANCH   1   2
HETATM    2  C   UNL     1       1.091   0.098   0.583  1.00  0.00     0.312 C 
HETATM    3  S   UNL     1       1.625   0.566  -1.122  1.00  0.00    -0.119 SA
HETATM    4  C   UNL     1       3.240   1.260  -0.589  1.00  0.00     0.044 C 
HETATM    5  C   UNL     1       3.172   2.786  -0.512  1.00  0.00     0.029 C 
HETATM    6  C   UNL     1       4.355   0.818  -1.539  1.00  0.00     0.029 C 
HETATM    7  CA  UNL     1       3.451   0.655   0.812  1.00  0.00     0.336 C 
HETATM    8  N   UNL     1       2.395  -0.290   1.189  1.00  0.00     0.116 N 
HETATM    9  H   UNL     1       2.646  -1.234   0.933  1.00  0.00     0.318 HD
BRANCH   7  10
HETATM   10  C   UNL     1       4.776  -0.061   0.839  1.00  0.00     0.175 C 
HETATM   11  O   UNL     1       4.817  -1.263   0.717  1.00  0.00    -0.648 OA
BRANCH  10  12
HETATM   12  OXT UNL     1       5.913   0.636   0.997  1.00  0.00    -0.775 OA
HETATM   13  HXT UNL     1       6.738   0.133   1.007  1.00  0.00     0.167 HD
ENDBRANCH  10  12
ENDBRANCH   7  10
ENDBRANCH   1   2
BRANCH   1  14
HETATM   14  N   UNL     1      -1.064  -0.725  -0.228  1.00  0.00    -0.345 N 
HETATM   15  C   UNL     1      -2.235  -1.352  -0.002  1.00  0.00     0.256 C 
HETATM   16  O   UNL     1      -2.307  -2.214   0.848  1.00  0.00    -0.271 OA
HETATM   17  H   UNL     1      -1.007  -0.036  -0.908  1.00  0.00     0.163 HD
BRANCH  15  18
HETATM   18  CA  UNL     1      -3.456  -0.981  -0.804  1.00  0.00     0.342 C 
BRANCH  18  19
HETATM   19  C   UNL     1      -4.064   0.278  -0.241  1.00  0.00    -0.016 A 
HETATM   20  C   UNL     1      -3.820   1.495  -0.850  1.00  0.00     0.010 A 
HETATM   21  C   UNL     1      -4.374   2.650  -0.331  1.00  0.00     0.001 A 
HETATM   22  C   UNL     1      -5.170   2.588   0.797  1.00  0.00     0.000 A 
HETATM   23  C   UNL     1      -5.423   1.370   1.400  1.00  0.00     0.001 A 
HETATM   24  C   UNL     1      -4.865   0.215   0.883  1.00  0.00     0.010 A 
ENDBRANCH  18  19
BRANCH  18  25
HETATM   25  N   UNL     1      -4.437  -2.072  -0.735  1.00  0.00     0.096 N 
HETATM   26  H1  UNL     1      -4.718  -2.247   0.219  1.00  0.00     0.314 HD
HETATM   27  H2  UNL     1      -5.238  -1.876  -1.317  1.00  0.00     0.314 HD
ENDBRANCH  18  25
ENDBRANCH  15  18
ENDBRANCH   1  14
BRANCH   1  28
HETATM   28  C   UNL     1       0.800  -2.272  -0.084  1.00  0.00     0.259 C 
HETATM   29  O   UNL     1       0.340  -2.766  -1.085  1.00  0.00    -0.305 OA
ENDBRANCH   1  28
TORSDOF 8
