NW3
  -OEChem-07282321083D

 45 46  0     1  0  0  0  0  0999 V2000
   -3.4560   -0.9810   -0.8040 C   0  0  2  0  0  0  0  0  0  0  0  0
   -3.8200    1.4950   -0.8500 C   0  0  0  0  0  0  0  0  0  0  0  0
   -5.1700    2.5880    0.7970 C   0  0  0  0  0  0  0  0  0  0  0  0
    4.7760   -0.0610    0.8390 C   0  0  0  0  0  0  0  0  0  0  0  0
    3.1720    2.7860   -0.5120 C   0  0  0  0  0  0  0  0  0  0  0  0
    4.3550    0.8180   -1.5390 C   0  0  0  0  0  0  0  0  0  0  0  0
    3.2400    1.2600   -0.5890 C   0  0  0  0  0  0  0  0  0  0  0  0
    3.4510    0.6550    0.8120 C   0  0  1  0  0  0  0  0  0  0  0  0
    1.0910    0.0980    0.5830 C   0  0  1  0  0  0  0  0  0  0  0  0
    0.1230   -1.0860    0.5520 C   0  0  2  0  0  0  0  0  0  0  0  0
    0.8000   -2.2720   -0.0840 C   0  0  0  0  0  0  0  0  0  0  0  0
   -2.2350   -1.3520   -0.0020 C   0  0  0  0  0  0  0  0  0  0  0  0
   -4.0640    0.2780   -0.2410 C   0  0  0  0  0  0  0  0  0  0  0  0
   -4.3740    2.6500   -0.3310 C   0  0  0  0  0  0  0  0  0  0  0  0
   -5.4230    1.3700    1.4000 C   0  0  0  0  0  0  0  0  0  0  0  0
   -4.8650    0.2150    0.8830 C   0  0  0  0  0  0  0  0  0  0  0  0
    2.3950   -0.2900    1.1890 N   0  0  0  0  0  0  0  0  0  0  0  0
   -1.0640   -0.7250   -0.2280 N   0  0  0  0  0  0  0  0  0  0  0  0
   -4.4370   -2.0720   -0.7350 N   0  0  0  0  0  0  0  0  0  0  0  0
    0.3400   -2.7660   -1.0850 O   0  0  0  0  0  0  0  0  0  0  0  0
   -2.3070   -2.2140    0.8480 O   0  0  0  0  0  0  0  0  0  0  0  0
    5.9130    0.6360    0.9970 O   0  0  0  0  0  0  0  0  0  0  0  0
    4.8170   -1.2630    0.7170 O   0  0  0  0  0  0  0  0  0  0  0  0
    1.6250    0.5660   -1.1220 S   0  0  0  0  0  0  0  0  0  0  0  0
   -3.1710   -0.8140   -1.8430 H   0  0  0  0  0  0  0  0  0  0  0  0
   -3.1940    1.5430   -1.7290 H   0  0  0  0  0  0  0  0  0  0  0  0
   -5.6060    3.4910    1.2010 H   0  0  0  0  0  0  0  0  0  0  0  0
    2.9850    3.1920   -1.5060 H   0  0  0  0  0  0  0  0  0  0  0  0
    2.3660    3.0810    0.1590 H   0  0  0  0  0  0  0  0  0  0  0  0
    4.1190    3.1730   -0.1340 H   0  0  0  0  0  0  0  0  0  0  0  0
    5.3130    1.1860   -1.1710 H   0  0  0  0  0  0  0  0  0  0  0  0
    4.3800   -0.2700   -1.5900 H   0  0  0  0  0  0  0  0  0  0  0  0
    4.1680    1.2240   -2.5330 H   0  0  0  0  0  0  0  0  0  0  0  0
    3.4740    1.4620    1.5440 H   0  0  0  0  0  0  0  0  0  0  0  0
    0.6530    0.9480    1.1060 H   0  0  0  0  0  0  0  0  0  0  0  0
   -0.1750   -1.3390    1.5690 H   0  0  0  0  0  0  0  0  0  0  0  0
    1.6980   -2.6810    0.3560 H   0  0  0  0  0  0  0  0  0  0  0  0
   -4.1840    3.6010   -0.8070 H   0  0  0  0  0  0  0  0  0  0  0  0
   -6.0550    1.3200    2.2730 H   0  0  0  0  0  0  0  0  0  0  0  0
   -5.0560   -0.7360    1.3590 H   0  0  0  0  0  0  0  0  0  0  0  0
    2.6460   -1.2340    0.9330 H   0  0  0  0  0  0  0  0  0  0  0  0
   -1.0070   -0.0360   -0.9080 H   0  0  0  0  0  0  0  0  0  0  0  0
   -4.7180   -2.2470    0.2190 H   0  0  0  0  0  0  0  0  0  0  0  0
   -5.2380   -1.8760   -1.3170 H   0  0  0  0  0  0  0  0  0  0  0  0
    6.7380    0.1330    1.0070 H   0  0  0  0  0  0  0  0  0  0  0  0
  5  7  1  0  0  0  0
  4 23  2  0  0  0  0
  6  7  1  0  0  0  0
  7  8  1  0  0  0  0
  7 24  1  0  0  0  0
  4  8  1  0  0  0  0
  4 22  1  0  0  0  0
  8 17  1  0  0  0  0
  9 24  1  0  0  0  0
  9 17  1  0  0  0  0
  9 10  1  0  0  0  0
  3 14  2  0  0  0  0
  2 14  1  0  0  0  0
  3 15  1  0  0  0  0
 10 18  1  0  0  0  0
 10 11  1  0  0  0  0
  2 13  2  0  0  0  0
 12 18  1  0  0  0  0
 11 20  2  0  0  0  0
 15 16  2  0  0  0  0
 13 16  1  0  0  0  0
  1 13  1  0  0  0  0
  1 12  1  0  0  0  0
 12 21  2  0  0  0  0
  1 19  1  0  0  0  0
  1 25  1  0  0  0  0
  2 26  1  0  0  0  0
  3 27  1  0  0  0  0
  5 28  1  0  0  0  0
  5 29  1  0  0  0  0
  5 30  1  0  0  0  0
  6 31  1  0  0  0  0
  6 32  1  0  0  0  0
  6 33  1  0  0  0  0
  8 34  1  0  0  0  0
  9 35  1  0  0  0  0
 10 36  1  0  0  0  0
 11 37  1  0  0  0  0
 14 38  1  0  0  0  0
 15 39  1  0  0  0  0
 16 40  1  0  0  0  0
 17 41  1  0  0  0  0
 18 42  1  0  0  0  0
 19 43  1  0  0  0  0
 19 44  1  0  0  0  0
 22 45  1  0  0  0  0
M  END
> <OPENEYE_ISO_SMILES>
CC1([C@@H](N[C@@H](S1)[C@H](C=O)NC(=O)[C@H](c2ccccc2)N)C(=O)O)C

> <OPENEYE_INCHI>
InChI=1S/C16H21N3O4S/c1-16(2)12(15(22)23)19-14(24-16)10(8-20)18-13(21)11(17)9-6-4-3-5-7-9/h3-8,10-12,14,19H,17H2,1-2H3,(H,18,21)(H,22,23)/t10-,11-,12-,14-/m0/s1

> <OPENEYE_INCHIKEY>
WHAIWIUXAXKSOT-MNXVOIDGSA-N

> <FORMULA>
C16H21N3O4S

$$$$
