REMARK  6 active torsions:
REMARK  status: ('A' for Active; 'I' for Inactive)
REMARK    1  A    between atoms: C_2  and  N_3 
REMARK    2  A    between atoms: C_5  and  C_6 
REMARK       I    between atoms: C_6  and  N_8 
REMARK    3  A    between atoms: C_11  and  N_12 
REMARK    4  A    between atoms: N_12  and  O_13 
REMARK    5  A    between atoms: O_13  and  S_14 
REMARK    6  A    between atoms: S_14  and  O_15 
ROOT
HETATM    1  N   UNL     1      -2.042   0.606  -0.398  1.00  0.00    -0.344 N 
HETATM    2  C   UNL     1      -0.613   0.519  -0.729  1.00  0.00     0.148 C 
HETATM    3  C   UNL     1      -2.847  -0.623  -0.418  1.00  0.00     0.178 C 
HETATM    4  C   UNL     1      -2.168  -1.671   0.469  1.00  0.00     0.037 C 
HETATM    5  C   UNL     1      -0.721  -1.862   0.011  1.00  0.00     0.026 C 
HETATM    6  C   UNL     1       0.036  -0.545   0.163  1.00  0.00     0.103 C 
ENDROOT
BRANCH   6   7
HETATM    7  N   UNL     1       1.435  -0.737  -0.242  1.00  0.00    -0.180 NA
HETATM    8  H   UNL     1       1.717  -1.698  -0.121  1.00  0.00     0.155 HD
BRANCH   7   9
HETATM    9  O   UNL     1       2.322   0.166   0.492  1.00  0.00    -0.167 OA
BRANCH   9  10
HETATM   10  S   UNL     1       3.792   0.024   0.125  1.00  0.00     0.257 S 
HETATM   11  O   UNL     1       4.025  -1.365  -0.065  1.00  0.00    -0.578 OA
HETATM   12  O   UNL     1       4.516   0.814   1.058  1.00  0.00    -0.578 OA
BRANCH  10  13
HETATM   13  O   UNL     1       3.982   0.682  -1.235  1.00  0.00    -0.273 OA
HETATM   14  H   UNL     1       4.891   0.647  -1.565  1.00  0.00     0.234 HD
ENDBRANCH  10  13
ENDBRANCH   9  10
ENDBRANCH   7   9
ENDBRANCH   6   7
BRANCH   1  15
HETATM   15  C   UNL     1      -2.602   1.789  -0.078  1.00  0.00     0.351 C 
HETATM   16  O   UNL     1      -1.909   2.779   0.029  1.00  0.00    -0.284 OA
ENDBRANCH   1  15
BRANCH   3  17
HETATM   17  C   UNL     1      -4.227  -0.331   0.111  1.00  0.00     0.238 C 
HETATM   18  O   UNL     1      -4.364   0.334   1.116  1.00  0.00    -0.271 OA
HETATM   19  N   UNL     1      -5.311  -0.808  -0.533  1.00  0.00    -0.368 N 
HETATM   20  H   UNL     1      -5.202  -1.339  -1.337  1.00  0.00     0.159 HD
HETATM   21  H   UNL     1      -6.200  -0.620  -0.193  1.00  0.00     0.159 HD
ENDBRANCH   3  17
TORSDOF 6
