NXL
  -OEChem-07282321083D

 30 30  0     1  0  0  0  0  0999 V2000
   -1.9090    2.7790    0.0290 O   0  0  0  0  0  0  0  0  0  0  0  0
   -2.6020    1.7890   -0.0780 C   0  0  0  0  0  0  0  0  0  0  0  0
   -2.0420    0.6060   -0.3980 N   0  0  0  0  0  0  0  0  0  0  0  0
   -0.6130    0.5190   -0.7290 C   0  0  0  0  0  0  0  0  0  0  0  0
   -2.8470   -0.6230   -0.4180 C   0  0  2  0  0  0  0  0  0  0  0  0
   -4.2270   -0.3310    0.1110 C   0  0  0  0  0  0  0  0  0  0  0  0
   -4.3640    0.3340    1.1160 O   0  0  0  0  0  0  0  0  0  0  0  0
   -5.3110   -0.8080   -0.5330 N   0  0  0  0  0  0  0  0  0  0  0  0
   -2.1680   -1.6710    0.4690 C   0  0  0  0  0  0  0  0  0  0  0  0
   -0.7210   -1.8620    0.0110 C   0  0  0  0  0  0  0  0  0  0  0  0
    0.0360   -0.5450    0.1630 C   0  0  1  0  0  0  0  0  0  0  0  0
    1.4350   -0.7370   -0.2420 N   0  0  0  0  0  0  0  0  0  0  0  0
    2.3220    0.1660    0.4920 O   0  0  0  0  0  0  0  0  0  0  0  0
    3.7920    0.0240    0.1250 S   0  0  0  0  0  0  0  0  0  0  0  0
    3.9820    0.6820   -1.2350 O   0  0  0  0  0  0  0  0  0  0  0  0
    4.5160    0.8140    1.0580 O   0  0  0  0  0  0  0  0  0  0  0  0
    4.0250   -1.3650   -0.0650 O   0  0  0  0  0  0  0  0  0  0  0  0
   -3.6670    1.8550    0.0870 H   0  0  0  0  0  0  0  0  0  0  0  0
   -0.4960    0.2390   -1.7760 H   0  0  0  0  0  0  0  0  0  0  0  0
   -0.1370    1.4840   -0.5510 H   0  0  0  0  0  0  0  0  0  0  0  0
   -2.9190   -0.9970   -1.4390 H   0  0  0  0  0  0  0  0  0  0  0  0
   -5.2020   -1.3390   -1.3370 H   0  0  0  0  0  0  0  0  0  0  0  0
   -6.2000   -0.6200   -0.1930 H   0  0  0  0  0  0  0  0  0  0  0  0
   -2.1810   -1.3340    1.5060 H   0  0  0  0  0  0  0  0  0  0  0  0
   -2.7040   -2.6180    0.3880 H   0  0  0  0  0  0  0  0  0  0  0  0
   -0.2430   -2.6250    0.6250 H   0  0  0  0  0  0  0  0  0  0  0  0
   -0.7080   -2.1750   -1.0330 H   0  0  0  0  0  0  0  0  0  0  0  0
   -0.0020   -0.2200    1.2030 H   0  0  0  0  0  0  0  0  0  0  0  0
    1.7170   -1.6980   -0.1210 H   0  0  0  0  0  0  0  0  0  0  0  0
    4.8910    0.6470   -1.5650 H   0  0  0  0  0  0  0  0  0  0  0  0
 11 12  1  0  0  0  0
  4 11  1  0  0  0  0
  3  4  1  0  0  0  0
 13 14  1  0  0  0  0
 10 11  1  0  0  0  0
  2  3  1  0  0  0  0
  1  2  2  0  0  0  0
 14 17  2  0  0  0  0
  3  5  1  0  0  0  0
 14 16  2  0  0  0  0
 14 15  1  0  0  0  0
  6  7  2  0  0  0  0
  9 10  1  0  0  0  0
  5  6  1  0  0  0  0
  5  9  1  0  0  0  0
  6  8  1  0  0  0  0
 12 13  1  0  0  0  0
  2 18  1  0  0  0  0
  4 19  1  0  0  0  0
  4 20  1  0  0  0  0
  5 21  1  0  0  0  0
  8 22  1  0  0  0  0
  8 23  1  0  0  0  0
  9 24  1  0  0  0  0
  9 25  1  0  0  0  0
 10 26  1  0  0  0  0
 10 27  1  0  0  0  0
 11 28  1  0  0  0  0
 12 29  1  0  0  0  0
 15 30  1  0  0  0  0
M  END
> <OPENEYE_ISO_SMILES>
C1C[C@H](N(C[C@@H]1NOS(=O)(=O)O)C=O)C(=O)N

> <OPENEYE_INCHI>
InChI=1S/C7H13N3O6S/c8-7(12)6-2-1-5(3-10(6)4-11)9-16-17(13,14)15/h4-6,9H,1-3H2,(H2,8,12)(H,13,14,15)/t5-,6+/m1/s1

> <OPENEYE_INCHIKEY>
WJDGWXPPFHLLNL-RITPCOANSA-N

> <FORMULA>
C7H13N3O6S

$$$$
