O2F
  -OEChem-07282321083D

 53 54  0     1  0  0  0  0  0999 V2000
    7.4830   -0.5890   -0.9700 C   0  0  0  0  0  0  0  0  0  0  0  0
    5.6310   -2.3200   -0.8500 C   0  0  0  0  0  0  0  0  0  0  0  0
    4.0580   -0.5790    0.7400 C   0  0  1  0  0  0  0  0  0  0  0  0
    2.1470    0.5220    1.6800 C   0  0  0  0  0  0  0  0  0  0  0  0
    3.0080   -0.4050   -0.3860 C   0  0  0  0  0  0  0  0  0  0  0  0
   -0.9460    0.7590    0.6370 C   0  0  2  0  0  0  0  0  0  0  0  0
   -1.8570    2.9240   -0.5860 C   0  0  0  0  0  0  0  0  0  0  0  0
   -3.9430   -1.3030    0.1590 C   0  0  2  0  0  0  0  0  0  0  0  0
   -1.5920   -0.6390    0.8000 C   0  0  2  0  0  0  0  0  0  0  0  0
   -1.3110   -1.5220   -0.4170 C   0  0  0  0  0  0  0  0  0  0  0  0
    6.1570   -0.9980   -0.5000 N   0  0  0  0  0  0  0  0  0  0  0  0
    5.4220   -0.1590    0.2550 C   0  0  0  0  0  0  0  0  0  0  0  0
    5.8570    0.9360    0.5450 O   0  0  0  0  0  0  0  0  0  0  0  0
   -3.0890   -0.2580    0.8810 C   0  0  1  0  0  0  0  0  0  0  0  0
   -3.6620   -1.2450   -1.3210 C   0  0  0  0  0  0  0  0  0  0  0  0
   -5.4240   -1.0130    0.4090 C   0  0  1  0  0  0  0  0  0  0  0  0
   -6.2770   -2.0580   -0.3130 C   0  0  0  0  0  0  0  0  0  0  0  0
    1.6960   -0.2610    0.4290 C   0  0  2  0  0  0  0  0  0  0  0  0
   -2.0580    1.6060    0.0600 C   0  0  0  0  0  0  0  0  0  0  0  0
    3.5990    0.3130    1.8250 N   0  0  0  0  0  0  0  0  0  0  0  0
   -3.1900    1.0390    0.2020 N   0  0  0  0  0  0  0  0  0  0  0  0
   -2.9210    3.6460   -0.9880 O   0  0  0  0  0  0  0  0  0  0  0  0
   -0.7340    3.3530   -0.7540 O   0  0  0  0  0  0  0  0  0  0  0  0
   -3.2320   -2.2180   -1.8930 O   0  0  0  0  0  0  0  0  0  0  0  0
   -5.6900   -1.0680    1.8110 O   0  0  0  0  0  0  0  0  0  0  0  0
    0.4600    0.6810   -0.5070 S   0  0  0  0  0  0  0  0  0  0  0  0
    7.9230   -1.3930   -1.5610 H   0  0  0  0  0  0  0  0  0  0  0  0
    7.3900    0.3050   -1.5860 H   0  0  0  0  0  0  0  0  0  0  0  0
    8.1230   -0.3760   -0.1140 H   0  0  0  0  0  0  0  0  0  0  0  0
    5.9240   -3.0410   -0.0860 H   0  0  0  0  0  0  0  0  0  0  0  0
    4.5440   -2.2750   -0.9080 H   0  0  0  0  0  0  0  0  0  0  0  0
    6.0350   -2.6280   -1.8140 H   0  0  0  0  0  0  0  0  0  0  0  0
    4.0800   -1.6140    1.0810 H   0  0  0  0  0  0  0  0  0  0  0  0
    1.9370    1.5840    1.5480 H   0  0  0  0  0  0  0  0  0  0  0  0
    1.6280    0.1450    2.5610 H   0  0  0  0  0  0  0  0  0  0  0  0
    3.2070    0.4950   -0.9690 H   0  0  0  0  0  0  0  0  0  0  0  0
    2.9750   -1.2840   -1.0290 H   0  0  0  0  0  0  0  0  0  0  0  0
   -0.6290    1.1490    1.6050 H   0  0  0  0  0  0  0  0  0  0  0  0
   -3.6980   -2.2960    0.5360 H   0  0  0  0  0  0  0  0  0  0  0  0
   -1.2580   -1.1220    1.7190 H   0  0  0  0  0  0  0  0  0  0  0  0
   -0.2450   -1.7410   -0.4690 H   0  0  0  0  0  0  0  0  0  0  0  0
   -1.8700   -2.4540   -0.3270 H   0  0  0  0  0  0  0  0  0  0  0  0
   -1.6200   -1.0000   -1.3230 H   0  0  0  0  0  0  0  0  0  0  0  0
   -3.4020   -0.1690    1.9210 H   0  0  0  0  0  0  0  0  0  0  0  0
   -3.8460   -0.3340   -1.8700 H   0  0  0  0  0  0  0  0  0  0  0  0
   -5.6680   -0.0200    0.0310 H   0  0  0  0  0  0  0  0  0  0  0  0
   -6.0320   -3.0510    0.0640 H   0  0  0  0  0  0  0  0  0  0  0  0
   -7.3320   -1.8510   -0.1350 H   0  0  0  0  0  0  0  0  0  0  0  0
   -6.0740   -2.0160   -1.3840 H   0  0  0  0  0  0  0  0  0  0  0  0
    1.3030   -1.2390    0.7070 H   0  0  0  0  0  0  0  0  0  0  0  0
    4.0950    1.1920    1.8050 H   0  0  0  0  0  0  0  0  0  0  0  0
   -2.7400    4.5000   -1.4050 H   0  0  0  0  0  0  0  0  0  0  0  0
   -5.4950   -1.9240    2.2160 H   0  0  0  0  0  0  0  0  0  0  0  0
  4 20  1  0  0  0  0
  4 18  1  0  0  0  0
  3 20  1  0  0  0  0
  7 23  2  0  0  0  0
 18 26  1  0  0  0  0
  5 18  1  0  0  0  0
  7 22  1  0  0  0  0
  7 19  1  0  0  0  0
 15 24  2  0  0  0  0
  1 11  1  0  0  0  0
  3  5  1  0  0  0  0
  3 12  1  0  0  0  0
  6 26  1  0  0  0  0
  6 19  1  0  0  0  0
 19 21  2  0  0  0  0
 11 12  1  0  0  0  0
 12 13  2  0  0  0  0
  8 15  1  0  0  0  0
  2 11  1  0  0  0  0
  6  9  1  0  0  0  0
 14 21  1  0  0  0  0
  8 14  1  0  0  0  0
  8 16  1  0  0  0  0
  9 14  1  0  0  0  0
 16 17  1  0  0  0  0
  9 10  1  0  0  0  0
 16 25  1  0  0  0  0
  1 27  1  0  0  0  0
  1 28  1  0  0  0  0
  1 29  1  0  0  0  0
  2 30  1  0  0  0  0
  2 31  1  0  0  0  0
  2 32  1  0  0  0  0
  3 33  1  0  0  0  0
  4 34  1  0  0  0  0
  4 35  1  0  0  0  0
  5 36  1  0  0  0  0
  5 37  1  0  0  0  0
  6 38  1  0  0  0  0
  8 39  1  0  0  0  0
  9 40  1  0  0  0  0
 10 41  1  0  0  0  0
 10 42  1  0  0  0  0
 10 43  1  0  0  0  0
 14 44  1  0  0  0  0
 15 45  1  0  0  0  0
 16 46  1  0  0  0  0
 17 47  1  0  0  0  0
 17 48  1  0  0  0  0
 17 49  1  0  0  0  0
 18 50  1  0  0  0  0
 20 51  1  0  0  0  0
 22 52  1  0  0  0  0
 25 53  1  0  0  0  0
M  END
> <OPENEYE_ISO_SMILES>
C[C@H]1[C@H](C(=N[C@H]1[C@H](C=O)[C@@H](C)O)C(=O)O)S[C@H]2C[C@H](NC2)C(=O)N(C)C

> <OPENEYE_INCHI>
InChI=1S/C17H27N3O5S/c1-8-13(11(7-21)9(2)22)19-14(17(24)25)15(8)26-10-5-12(18-6-10)16(23)20(3)4/h7-13,15,18,22H,5-6H2,1-4H3,(H,24,25)/t8-,9-,10+,11-,12+,13-,15-/m1/s1

> <OPENEYE_INCHIKEY>
UUIYVKJXUXGPKB-UUDPXGIYSA-N

> <FORMULA>
C17H27N3O5S

$$$$
