OC0
  -OEChem-07282321083D

 38 39  0     1  0  0  0  0  0999 V2000
    7.4140   -1.0370    0.8570 N   0  0  0  0  0  0  0  0  0  0  0  0
    6.1010   -0.6450    0.6240 C   0  0  0  0  0  0  0  0  0  0  0  0
    5.1660   -0.5810    1.5190 N   0  0  0  0  0  0  0  0  0  0  0  0
    3.9340   -0.1650    1.0650 N   0  0  0  0  0  0  0  0  0  0  0  0
    3.8660    0.1100   -0.2000 C   0  0  0  0  0  0  0  0  0  0  0  0
    2.4250    0.6620   -1.0500 S   0  0  0  0  0  0  0  0  0  0  0  0
    1.1750    0.7230    0.2640 C   0  0  0  0  0  0  0  0  0  0  0  0
   -0.1380    1.1860   -0.3130 C   0  0  0  0  0  0  0  0  0  0  0  0
   -0.2230    1.4490   -1.4940 O   0  0  0  0  0  0  0  0  0  0  0  0
   -1.2180    1.3070    0.4840 N   0  0  0  0  0  0  0  0  0  0  0  0
   -2.4950    1.7570   -0.0770 C   0  0  1  0  0  0  0  0  0  0  0  0
   -3.6250    0.8710    0.4520 C   0  0  0  0  0  0  0  0  0  0  0  0
   -3.4270   -0.5030   -0.0140 N   0  0  0  0  0  0  0  0  0  0  0  0
   -3.3460   -1.6080    0.7530 C   0  0  0  0  0  0  0  0  0  0  0  0
   -3.1660   -2.6660   -0.0930 C   0  0  0  0  0  0  0  0  0  0  0  0
   -3.0250   -4.0770    0.3090 C   0  0  0  0  0  0  0  0  0  0  0  0
   -3.0660   -4.3810    1.4850 O   0  0  0  0  0  0  0  0  0  0  0  0
   -2.8520   -5.0300   -0.6280 O   0  0  0  0  0  0  0  0  0  0  0  0
   -3.1390   -2.2010   -1.3540 N   0  0  0  0  0  0  0  0  0  0  0  0
   -3.2910   -0.9230   -1.3450 N   0  0  0  0  0  0  0  0  0  0  0  0
   -2.7610    3.2720    0.3520 B   0  5  0  0  0  0  0  0  0  0  0  0
   -3.9000    3.7240   -0.2530 O   0  0  0  0  0  0  0  0  0  0  0  0
   -2.9080    3.3420    1.7100 O   0  0  0  0  0  0  0  0  0  0  0  0
    5.4460   -0.1490   -0.9330 S   0  0  0  0  0  0  0  0  0  0  0  0
    7.6920   -1.2920    1.7500 H   0  0  0  0  0  0  0  0  0  0  0  0
    8.0500   -1.0600    0.1250 H   0  0  0  0  0  0  0  0  0  0  0  0
    1.0530   -0.2710    0.6950 H   0  0  0  0  0  0  0  0  0  0  0  0
    1.4970    1.4180    1.0390 H   0  0  0  0  0  0  0  0  0  0  0  0
   -1.1510    1.0970    1.4280 H   0  0  0  0  0  0  0  0  0  0  0  0
   -2.4580    1.6890   -1.1640 H   0  0  0  0  0  0  0  0  0  0  0  0
   -3.6210    0.8890    1.5420 H   0  0  0  0  0  0  0  0  0  0  0  0
   -4.5810    1.2450    0.0860 H   0  0  0  0  0  0  0  0  0  0  0  0
   -3.4100   -1.6500    1.8310 H   0  0  0  0  0  0  0  0  0  0  0  0
   -2.7650   -5.9410   -0.3160 H   0  0  0  0  0  0  0  0  0  0  0  0
   -4.7060    3.2780    0.0420 H   0  0  0  0  0  0  0  0  0  0  0  0
   -3.0720    4.2350    2.0420 H   0  0  0  0  0  0  0  0  0  0  0  0
   -1.7020    4.0470   -0.0320 O   0  0  0  0  0  0  0  0  0  0  0  0
   -0.8590    3.7830    0.3600 H   0  0  0  0  0  0  0  0  0  0  0  0
 16 17  2  0  0  0  0
 16 18  1  0  0  0  0
 15 16  1  0  0  0  0
 14 15  2  0  0  0  0
 15 19  1  0  0  0  0
 21 22  1  0  0  0  0
 13 14  1  0  0  0  0
 19 20  2  0  0  0  0
 21 23  1  0  0  0  0
 11 21  1  0  0  0  0
 13 20  1  0  0  0  0
 12 13  1  0  0  0  0
 11 12  1  0  0  0  0
 10 11  1  0  0  0  0
  1  2  1  0  0  0  0
  8 10  1  0  0  0  0
  2 24  1  0  0  0  0
  5 24  1  0  0  0  0
  2  3  2  0  0  0  0
  3  4  1  0  0  0  0
  4  5  2  0  0  0  0
  5  6  1  0  0  0  0
  6  7  1  0  0  0  0
  8  9  2  0  0  0  0
  7  8  1  0  0  0  0
  1 25  1  0  0  0  0
  1 26  1  0  0  0  0
  7 27  1  0  0  0  0
  7 28  1  0  0  0  0
 10 29  1  0  0  0  0
 11 30  1  0  0  0  0
 12 31  1  0  0  0  0
 12 32  1  0  0  0  0
 14 33  1  0  0  0  0
 18 34  1  0  0  0  0
 22 35  1  0  0  0  0
 23 36  1  0  0  0  0
 21 37  1  0  0  0  0
 37 38  1  0  0  0  0
M  CHG  1  21  -1
M  END
> <OPENEYE_ISO_SMILES>
[B-]([C@H](Cn1cc(nn1)C(=O)O)NC(=O)CSc2nnc(s2)N)(O)(O)O

> <OPENEYE_INCHI>
InChI=1S/C9H13BN7O6S2/c11-8-14-15-9(25-8)24-3-6(18)12-5(10(21,22)23)2-17-1-4(7(19)20)13-16-17/h1,5,21-23H,2-3H2,(H2,11,14)(H,12,18)(H,19,20)/q-1/t5-/m0/s1

> <OPENEYE_INCHIKEY>
QYCRGDXARHKIHF-YFKPBYRVSA-N

> <FORMULA>
C9H13BN7O6S2-

$$$$
