REMARK  13 active torsions:
REMARK  status: ('A' for Active; 'I' for Inactive)
REMARK    1  A    between atoms: N_1  and  C_2 
REMARK    2  A    between atoms: C_5  and  S_6 
REMARK    3  A    between atoms: S_6  and  C_7 
REMARK    4  A    between atoms: C_7  and  C_8 
REMARK       I    between atoms: C_8  and  N_10 
REMARK    5  A    between atoms: N_10  and  C_11 
REMARK    6  A    between atoms: C_11  and  B_21 
REMARK    7  A    between atoms: C_11  and  C_12 
REMARK    8  A    between atoms: C_12  and  N_13 
REMARK    9  A    between atoms: C_15  and  C_16 
REMARK   10  A    between atoms: C_16  and  O_18 
REMARK   11  A    between atoms: B_21  and  O_22 
REMARK   12  A    between atoms: B_21  and  O_23 
REMARK   13  A    between atoms: B_21  and  O_31 
ROOT
HETATM    1  C   UNL     1      -2.495   1.757  -0.077  1.00  0.00     0.169 C 
ENDROOT
BRANCH   1   2
HETATM    2  N   UNL     1      -1.218   1.307   0.484  1.00  0.00    -0.354 N 
HETATM    3  C   UNL     1      -0.138   1.186  -0.313  1.00  0.00     0.227 C 
HETATM    4  O   UNL     1      -0.223   1.449  -1.494  1.00  0.00    -0.273 OA
HETATM    5  H   UNL     1      -1.151   1.097   1.428  1.00  0.00     0.162 HD
BRANCH   3   6
HETATM    6  C   UNL     1       1.175   0.723   0.264  1.00  0.00     0.184 C 
BRANCH   6   7
HETATM    7  S   UNL     1       2.425   0.662  -1.050  1.00  0.00    -0.092 SA
BRANCH   7   8
HETATM    8  C   UNL     1       3.866   0.110  -0.200  1.00  0.00     0.160 A 
HETATM    9  N   UNL     1       3.934  -0.165   1.065  1.00  0.00    -0.133 NA
HETATM   10  N   UNL     1       5.166  -0.581   1.519  1.00  0.00    -0.123 NA
HETATM   11  C   UNL     1       6.101  -0.645   0.624  1.00  0.00     0.188 A 
HETATM   12  S   UNL     1       5.446  -0.149  -0.933  1.00  0.00    -0.022 SA
BRANCH  11  13
HETATM   13  N   UNL     1       7.414  -1.037   0.857  1.00  0.00    -0.377 N 
HETATM   14  H   UNL     1       7.692  -1.292   1.750  1.00  0.00     0.158 HD
HETATM   15  H   UNL     1       8.050  -1.060   0.125  1.00  0.00     0.158 HD
ENDBRANCH  11  13
ENDBRANCH   7   8
ENDBRANCH   6   7
ENDBRANCH   3   6
ENDBRANCH   1   2
BRANCH   1  16
HETATM   16  B   UNL     1      -2.761   3.272   0.352  1.00  0.00     0.628 B 
BRANCH  16  17
HETATM   17  O   UNL     1      -3.900   3.724  -0.253  1.00  0.00    -0.408 OA
HETATM   18  H   UNL     1      -4.706   3.278   0.042  1.00  0.00     0.188 HD
ENDBRANCH  16  17
BRANCH  16  19
HETATM   19  O   UNL     1      -2.908   3.342   1.710  1.00  0.00    -0.408 OA
HETATM   20  H   UNL     1      -3.072   4.235   2.042  1.00  0.00     0.188 HD
ENDBRANCH  16  19
BRANCH  16  21
HETATM   21  O   UNL     1      -1.702   4.047  -0.032  1.00  0.00    -0.408 OA
HETATM   22  H   UNL     1      -0.859   3.783   0.360  1.00  0.00     0.188 HD
ENDBRANCH  16  21
ENDBRANCH   1  16
BRANCH   1  23
HETATM   23  C   UNL     1      -3.625   0.871   0.452  1.00  0.00     0.176 C 
BRANCH  23  24
HETATM   24  N   UNL     1      -3.427  -0.503  -0.014  1.00  0.00    -0.259 N 
HETATM   25  C   UNL     1      -3.346  -1.608   0.753  1.00  0.00     0.154 A 
HETATM   26  C   UNL     1      -3.166  -2.666  -0.093  1.00  0.00     0.171 A 
HETATM   27  N   UNL     1      -3.139  -2.201  -1.354  1.00  0.00    -0.124 NA
HETATM   28  N   UNL     1      -3.291  -0.923  -1.345  1.00  0.00    -0.066 NA
BRANCH  26  29
HETATM   29  C   UNL     1      -3.025  -4.077   0.309  1.00  0.00     0.199 C 
HETATM   30  O   UNL     1      -3.066  -4.381   1.485  1.00  0.00    -0.645 OA
BRANCH  29  31
HETATM   31  O   UNL     1      -2.852  -5.030  -0.628  1.00  0.00    -0.772 OA
HETATM   32  H   UNL     1      -2.765  -5.941  -0.316  1.00  0.00     0.167 HD
ENDBRANCH  29  31
ENDBRANCH  26  29
ENDBRANCH  23  24
ENDBRANCH   1  23
TORSDOF 13
