REMARK  8 active torsions:
REMARK  status: ('A' for Active; 'I' for Inactive)
REMARK    1  A    between atoms: N_1  and  C_2 
REMARK    2  A    between atoms: C_2  and  C_3 
REMARK    3  A    between atoms: C_6  and  C_9 
REMARK       I    between atoms: C_9  and  N_11 
REMARK    4  A    between atoms: N_11  and  C_12 
REMARK    5  A    between atoms: B_17  and  O_18 
REMARK    6  A    between atoms: B_17  and  O_19 
REMARK    7  A    between atoms: C_20  and  C_24 
REMARK    8  A    between atoms: C_24  and  O_26 
ROOT
HETATM    1  C   UNL     1      -0.450  -0.410  -0.375  1.00  0.00     0.154 C 
HETATM    2  C   UNL     1      -1.148  -1.711   0.037  1.00  0.00     0.065 C 
HETATM    3  C   UNL     1      -2.641  -1.494   0.028  1.00  0.00    -0.024 A 
HETATM    4  C   UNL     1      -3.189  -0.225   0.006  1.00  0.00     0.078 A 
HETATM    5  O   UNL     1      -2.440   0.902  -0.019  1.00  0.00    -0.357 OA
HETATM    6  B   UNL     1      -1.155   0.791   0.417  1.00  0.00     0.634 B 
HETATM    7  C   UNL     1      -4.590  -0.080   0.005  1.00  0.00     0.070 A 
HETATM    8  C   UNL     1      -5.409  -1.210   0.022  1.00  0.00     0.021 A 
HETATM    9  C   UNL     1      -4.843  -2.466   0.039  1.00  0.00     0.002 A 
HETATM   10  C   UNL     1      -3.466  -2.606   0.042  1.00  0.00     0.010 A 
ENDROOT
BRANCH   1  11
HETATM   11  N   UNL     1       0.970  -0.473  -0.020  1.00  0.00    -0.352 N 
HETATM   12  C   UNL     1       1.904  -0.070  -0.904  1.00  0.00     0.251 C 
HETATM   13  O   UNL     1       1.568   0.346  -1.996  1.00  0.00    -0.268 OA
HETATM   14  H   UNL     1       1.238  -0.806   0.851  1.00  0.00     0.162 HD
BRANCH  12  15
HETATM   15  C   UNL     1       3.337  -0.134  -0.546  1.00  0.00     0.032 A 
HETATM   16  C   UNL     1       4.307   0.282  -1.460  1.00  0.00     0.017 A 
HETATM   17  C   UNL     1       5.642   0.220  -1.119  1.00  0.00     0.010 A 
HETATM   18  C   UNL     1       6.021  -0.254   0.124  1.00  0.00    -0.031 A 
HETATM   19  C   UNL     1       5.065  -0.673   1.032  1.00  0.00     0.010 A 
HETATM   20  C   UNL     1       3.726  -0.612   0.706  1.00  0.00     0.017 A 
BRANCH  18  21
HETATM   21  C   UNL     1       7.482  -0.319   0.489  1.00  0.00     0.305 C 
BRANCH  21  22
HETATM   22  N   UNL     1       7.886   0.945   1.119  1.00  0.00     0.082 N 
HETATM   23  H   UNL     1       8.863   0.926   1.373  1.00  0.00     0.313 HD
HETATM   24  H   UNL     1       7.684   1.730   0.517  1.00  0.00     0.313 HD
ENDBRANCH  21  22
ENDBRANCH  18  21
ENDBRANCH  12  15
ENDBRANCH   1  11
BRANCH   6  25
HETATM   25  O   UNL     1      -0.485   1.957   0.174  1.00  0.00    -0.408 OA
HETATM   26  H   UNL     1      -0.859   2.727   0.624  1.00  0.00     0.188 HD
ENDBRANCH   6  25
BRANCH   6  27
HETATM   27  O   UNL     1      -1.146   0.523   1.758  1.00  0.00    -0.408 OA
HETATM   28  H   UNL     1      -1.559   1.211   2.299  1.00  0.00     0.188 HD
ENDBRANCH   6  27
BRANCH   7  29
HETATM   29  C   UNL     1      -5.192   1.265  -0.012  1.00  0.00     0.178 C 
HETATM   30  O   UNL     1      -4.479   2.249  -0.026  1.00  0.00    -0.646 OA
BRANCH  29  31
HETATM   31  O   UNL     1      -6.532   1.404  -0.013  1.00  0.00    -0.773 OA
HETATM   32  H   UNL     1      -6.880   2.306  -0.024  1.00  0.00     0.167 HD
ENDBRANCH  29  31
ENDBRANCH   7  29
TORSDOF 8
