OK3
  -OEChem-07282321083D

 44 46  0     1  0  0  0  0  0999 V2000
    7.8860    0.9450    1.1190 N   0  0  0  0  0  0  0  0  0  0  0  0
    7.4820   -0.3190    0.4890 C   0  0  0  0  0  0  0  0  0  0  0  0
    6.0210   -0.2540    0.1240 C   0  0  0  0  0  0  0  0  0  0  0  0
    5.6420    0.2200   -1.1190 C   0  0  0  0  0  0  0  0  0  0  0  0
    4.3070    0.2820   -1.4600 C   0  0  0  0  0  0  0  0  0  0  0  0
    3.3370   -0.1340   -0.5460 C   0  0  0  0  0  0  0  0  0  0  0  0
    3.7260   -0.6120    0.7060 C   0  0  0  0  0  0  0  0  0  0  0  0
    5.0650   -0.6730    1.0320 C   0  0  0  0  0  0  0  0  0  0  0  0
    1.9040   -0.0700   -0.9040 C   0  0  0  0  0  0  0  0  0  0  0  0
    1.5680    0.3460   -1.9960 O   0  0  0  0  0  0  0  0  0  0  0  0
    0.9700   -0.4730   -0.0200 N   0  0  0  0  0  0  0  0  0  0  0  0
   -0.4500   -0.4100   -0.3750 C   0  0  1  0  0  0  0  0  0  0  0  0
   -1.1480   -1.7110    0.0370 C   0  0  0  0  0  0  0  0  0  0  0  0
   -2.6410   -1.4940    0.0280 C   0  0  0  0  0  0  0  0  0  0  0  0
   -3.1890   -0.2250    0.0060 C   0  0  0  0  0  0  0  0  0  0  0  0
   -2.4400    0.9020   -0.0190 O   0  0  0  0  0  0  0  0  0  0  0  0
   -1.1550    0.7910    0.4170 B   0  5  0  0  0  0  0  0  0  0  0  0
   -0.4850    1.9570    0.1740 O   0  0  0  0  0  0  0  0  0  0  0  0
   -1.1460    0.5230    1.7580 O   0  0  0  0  0  0  0  0  0  0  0  0
   -4.5900   -0.0800    0.0050 C   0  0  0  0  0  0  0  0  0  0  0  0
   -5.4090   -1.2100    0.0220 C   0  0  0  0  0  0  0  0  0  0  0  0
   -4.8430   -2.4660    0.0390 C   0  0  0  0  0  0  0  0  0  0  0  0
   -3.4660   -2.6060    0.0420 C   0  0  0  0  0  0  0  0  0  0  0  0
   -5.1920    1.2650   -0.0120 C   0  0  0  0  0  0  0  0  0  0  0  0
   -4.4790    2.2490   -0.0260 O   0  0  0  0  0  0  0  0  0  0  0  0
   -6.5320    1.4040   -0.0130 O   0  0  0  0  0  0  0  0  0  0  0  0
    8.8630    0.9260    1.3730 H   0  0  0  0  0  0  0  0  0  0  0  0
    7.6840    1.7300    0.5170 H   0  0  0  0  0  0  0  0  0  0  0  0
    8.0740   -0.4820   -0.4110 H   0  0  0  0  0  0  0  0  0  0  0  0
    7.6460   -1.1410    1.1860 H   0  0  0  0  0  0  0  0  0  0  0  0
    6.3940    0.5430   -1.8250 H   0  0  0  0  0  0  0  0  0  0  0  0
    5.3680   -1.0460    2.0000 H   0  0  0  0  0  0  0  0  0  0  0  0
    4.0130    0.6520   -2.4310 H   0  0  0  0  0  0  0  0  0  0  0  0
    2.9800   -0.9350    1.4180 H   0  0  0  0  0  0  0  0  0  0  0  0
    1.2380   -0.8060    0.8510 H   0  0  0  0  0  0  0  0  0  0  0  0
   -0.5560   -0.2580   -1.4490 H   0  0  0  0  0  0  0  0  0  0  0  0
   -0.8900   -2.5020   -0.6670 H   0  0  0  0  0  0  0  0  0  0  0  0
   -0.8270   -1.9950    1.0400 H   0  0  0  0  0  0  0  0  0  0  0  0
   -3.0300   -3.5940    0.0560 H   0  0  0  0  0  0  0  0  0  0  0  0
   -0.8590    2.7270    0.6240 H   0  0  0  0  0  0  0  0  0  0  0  0
   -1.5590    1.2110    2.2990 H   0  0  0  0  0  0  0  0  0  0  0  0
   -6.4830   -1.1000    0.0210 H   0  0  0  0  0  0  0  0  0  0  0  0
   -5.4750   -3.3420    0.0510 H   0  0  0  0  0  0  0  0  0  0  0  0
   -6.8800    2.3060   -0.0240 H   0  0  0  0  0  0  0  0  0  0  0  0
  1  2  1  0  0  0  0
  2  3  1  0  0  0  0
  3  4  1  0  0  0  0
  3  8  2  0  0  0  0
  4  5  2  0  0  0  0
  5  6  1  0  0  0  0
  6  7  2  0  0  0  0
  6  9  1  0  0  0  0
  7  8  1  0  0  0  0
  9 10  2  0  0  0  0
  9 11  1  0  0  0  0
 11 12  1  0  0  0  0
 12 13  1  0  0  0  0
 12 17  1  0  0  0  0
 13 14  1  0  0  0  0
 14 15  1  0  0  0  0
 14 23  2  0  0  0  0
 15 16  1  0  0  0  0
 15 20  2  0  0  0  0
 16 17  1  0  0  0  0
 17 18  1  0  0  0  0
 17 19  1  0  0  0  0
 20 21  1  0  0  0  0
 20 24  1  0  0  0  0
 21 22  2  0  0  0  0
 22 23  1  0  0  0  0
 24 25  2  0  0  0  0
 24 26  1  0  0  0  0
  1 27  1  0  0  0  0
  1 28  1  0  0  0  0
  2 29  1  0  0  0  0
  2 30  1  0  0  0  0
  4 31  1  0  0  0  0
  8 32  1  0  0  0  0
  5 33  1  0  0  0  0
  7 34  1  0  0  0  0
 11 35  1  0  0  0  0
 12 36  1  0  0  0  0
 13 37  1  0  0  0  0
 13 38  1  0  0  0  0
 23 39  1  0  0  0  0
 18 40  1  0  0  0  0
 19 41  1  0  0  0  0
 21 42  1  0  0  0  0
 22 43  1  0  0  0  0
 26 44  1  0  0  0  0
M  CHG  1  17  -1
M  END
> <OPENEYE_ISO_SMILES>
[B-]1([C@H](Cc2cccc(c2O1)C(=O)O)NC(=O)c3ccc(cc3)CN)(O)O

> <OPENEYE_INCHI>
InChI=1S/C17H18BN2O6/c19-9-10-4-6-11(7-5-10)16(21)20-14-8-12-2-1-3-13(17(22)23)15(12)26-18(14,24)25/h1-7,14,24-25H,8-9,19H2,(H,20,21)(H,22,23)/q-1/t14-/m0/s1

> <OPENEYE_INCHIKEY>
QLXKUYDHLJOWQG-AWEZNQCLSA-N

> <FORMULA>
C17H18BN2O6-

$$$$
