OP0
  -OEChem-07282321083D

 39 39  0     1  0  0  0  0  0999 V2000
   -1.0820    1.8800   -0.0500 C   0  0  0  0  0  0  0  0  0  0  0  0
   -0.3640    2.8560    0.0100 O   0  0  0  0  0  0  0  0  0  0  0  0
   -0.5560    0.6740   -0.3390 N   0  0  0  0  0  0  0  0  0  0  0  0
   -1.3910   -0.5350   -0.3050 C   0  0  2  0  0  0  0  0  0  0  0  0
   -2.7560   -0.1910    0.2350 C   0  0  0  0  0  0  0  0  0  0  0  0
   -3.8610   -0.6610   -0.3770 N   0  0  0  0  0  0  0  0  0  0  0  0
   -2.8590    0.5100    1.2200 O   0  0  0  0  0  0  0  0  0  0  0  0
    0.8620    0.5420   -0.7000 C   0  0  0  0  0  0  0  0  0  0  0  0
    1.5090   -0.5030    0.2150 C   0  0  1  0  0  0  0  0  0  0  0  0
    0.7150   -1.8090    0.1320 C   0  0  0  0  0  0  0  0  0  0  0  0
   -0.7240   -1.5700    0.6060 C   0  0  0  0  0  0  0  0  0  0  0  0
    2.8930   -0.7420   -0.2150 N   0  0  0  0  0  0  0  0  0  0  0  0
    5.2740   -0.0220    0.0660 S   0  0  0  0  0  0  0  0  0  0  0  0
    3.8170    0.1670    0.4630 O   0  0  0  0  0  0  0  0  0  0  0  0
    5.4450    0.5810   -1.3220 O   0  0  0  0  0  0  0  0  0  0  0  0
    6.0390    0.7850    0.9510 O   0  0  0  0  0  0  0  0  0  0  0  0
    5.4730   -1.4220   -0.0780 O   0  0  0  0  0  0  0  0  0  0  0  0
   -7.7190    0.9640   -0.0960 N   0  0  0  0  0  0  0  0  0  0  0  0
   -7.5520   -0.4910    0.0200 C   0  0  0  0  0  0  0  0  0  0  0  0
   -6.2220   -0.9030   -0.6150 C   0  0  0  0  0  0  0  0  0  0  0  0
   -5.1420   -0.3380    0.1310 O   0  0  0  0  0  0  0  0  0  0  0  0
   -2.1420    1.9780    0.1330 H   0  0  0  0  0  0  0  0  0  0  0  0
   -1.4870   -0.9410   -1.3120 H   0  0  0  0  0  0  0  0  0  0  0  0
   -3.7780   -1.2210   -1.1640 H   0  0  0  0  0  0  0  0  0  0  0  0
    0.9470    0.2210   -1.7380 H   0  0  0  0  0  0  0  0  0  0  0  0
    1.3630    1.5020   -0.5700 H   0  0  0  0  0  0  0  0  0  0  0  0
    1.5050   -0.1390    1.2420 H   0  0  0  0  0  0  0  0  0  0  0  0
    0.6990   -2.1590   -0.9000 H   0  0  0  0  0  0  0  0  0  0  0  0
    1.1880   -2.5610    0.7630 H   0  0  0  0  0  0  0  0  0  0  0  0
   -0.7120   -1.1980    1.6310 H   0  0  0  0  0  0  0  0  0  0  0  0
   -1.2830   -2.5050    0.5640 H   0  0  0  0  0  0  0  0  0  0  0  0
    3.1570   -1.7040   -0.0660 H   0  0  0  0  0  0  0  0  0  0  0  0
   -8.5910    1.2620    0.3160 H   0  0  0  0  0  0  0  0  0  0  0  0
   -6.9380    1.4520    0.3170 H   0  0  0  0  0  0  0  0  0  0  0  0
   -7.5550   -0.7740    1.0720 H   0  0  0  0  0  0  0  0  0  0  0  0
   -8.3710   -0.9930   -0.4940 H   0  0  0  0  0  0  0  0  0  0  0  0
   -6.1390   -1.9900   -0.6080 H   0  0  0  0  0  0  0  0  0  0  0  0
   -6.1830   -0.5420   -1.6430 H   0  0  0  0  0  0  0  0  0  0  0  0
    6.3440    0.5130   -1.6720 H   0  0  0  0  0  0  0  0  0  0  0  0
 19 20  1  0  0  0  0
 20 21  1  0  0  0  0
 18 19  1  0  0  0  0
  6 21  1  0  0  0  0
  5  6  1  0  0  0  0
  5  7  2  0  0  0  0
  4  5  1  0  0  0  0
  4 11  1  0  0  0  0
  3  4  1  0  0  0  0
 10 11  1  0  0  0  0
  1  2  2  0  0  0  0
  1  3  1  0  0  0  0
  3  8  1  0  0  0  0
  9 10  1  0  0  0  0
  8  9  1  0  0  0  0
 13 16  2  0  0  0  0
  9 12  1  0  0  0  0
 12 14  1  0  0  0  0
 13 17  2  0  0  0  0
 13 14  1  0  0  0  0
 13 15  1  0  0  0  0
  1 22  1  0  0  0  0
  4 23  1  0  0  0  0
  6 24  1  0  0  0  0
  8 25  1  0  0  0  0
  8 26  1  0  0  0  0
  9 27  1  0  0  0  0
 10 28  1  0  0  0  0
 10 29  1  0  0  0  0
 11 30  1  0  0  0  0
 11 31  1  0  0  0  0
 12 32  1  0  0  0  0
 18 33  1  0  0  0  0
 18 34  1  0  0  0  0
 19 35  1  0  0  0  0
 19 36  1  0  0  0  0
 20 37  1  0  0  0  0
 20 38  1  0  0  0  0
 15 39  1  0  0  0  0
M  END
> <OPENEYE_ISO_SMILES>
C1C[C@H](N(C[C@@H]1NOS(=O)(=O)O)C=O)C(=O)NOCCN

> <OPENEYE_INCHI>
InChI=1S/C9H18N4O7S/c10-3-4-19-12-9(15)8-2-1-7(5-13(8)6-14)11-20-21(16,17)18/h6-8,11H,1-5,10H2,(H,12,15)(H,16,17,18)/t7-,8+/m1/s1

> <OPENEYE_INCHIKEY>
YTAWXXHGLPATIN-SFYZADRCSA-N

> <FORMULA>
C9H18N4O7S

$$$$
