REMARK  10 active torsions:
REMARK  status: ('A' for Active; 'I' for Inactive)
REMARK    1  A    between atoms: C_1  and  N_3 
REMARK    2  A    between atoms: C_4  and  C_5 
REMARK       I    between atoms: C_5  and  N_6 
REMARK    3  A    between atoms: N_6  and  O_21 
REMARK    4  A    between atoms: C_9  and  N_12 
REMARK    5  A    between atoms: N_12  and  O_14 
REMARK    6  A    between atoms: S_13  and  O_14 
REMARK    7  A    between atoms: S_13  and  O_15 
REMARK    8  A    between atoms: N_18  and  C_19 
REMARK    9  A    between atoms: C_19  and  C_20 
REMARK   10  A    between atoms: C_20  and  O_21 
ROOT
HETATM    1  N   UNL     1      -0.556   0.674  -0.339  1.00  0.00    -0.344 N 
HETATM    2  C   UNL     1      -1.391  -0.535  -0.305  1.00  0.00     0.180 C 
HETATM    3  C   UNL     1       0.862   0.542  -0.700  1.00  0.00     0.148 C 
HETATM    4  C   UNL     1       1.509  -0.503   0.215  1.00  0.00     0.103 C 
HETATM    5  C   UNL     1       0.715  -1.809   0.132  1.00  0.00     0.026 C 
HETATM    6  C   UNL     1      -0.724  -1.570   0.606  1.00  0.00     0.037 C 
ENDROOT
BRANCH   2   7
HETATM    7  C   UNL     1      -2.756  -0.191   0.235  1.00  0.00     0.264 C 
HETATM    8  N   UNL     1      -3.861  -0.661  -0.377  1.00  0.00    -0.233 N 
HETATM    9  H   UNL     1      -3.778  -1.221  -1.164  1.00  0.00     0.197 HD
HETATM   10  O   UNL     1      -2.859   0.510   1.220  1.00  0.00    -0.269 OA
BRANCH   8  11
HETATM   11  O   UNL     1      -5.142  -0.338   0.131  1.00  0.00    -0.276 OA
BRANCH  11  12
HETATM   12  C   UNL     1      -6.222  -0.903  -0.615  1.00  0.00     0.231 C 
BRANCH  12  13
HETATM   13  C   UNL     1      -7.552  -0.491   0.020  1.00  0.00     0.295 C 
BRANCH  13  14
HETATM   14  N   UNL     1      -7.719   0.964  -0.096  1.00  0.00     0.080 N 
HETATM   15  H   UNL     1      -8.591   1.262   0.316  1.00  0.00     0.312 HD
HETATM   16  H   UNL     1      -6.938   1.452   0.317  1.00  0.00     0.312 HD
ENDBRANCH  13  14
ENDBRANCH  12  13
ENDBRANCH  11  12
ENDBRANCH   8  11
ENDBRANCH   2   7
BRANCH   1  17
HETATM   17  C   UNL     1      -1.082   1.880  -0.050  1.00  0.00     0.351 C 
HETATM   18  O   UNL     1      -0.364   2.856   0.010  1.00  0.00    -0.284 OA
ENDBRANCH   1  17
BRANCH   4  19
HETATM   19  N   UNL     1       2.893  -0.742  -0.215  1.00  0.00    -0.180 NA
HETATM   20  H   UNL     1       3.157  -1.704  -0.066  1.00  0.00     0.155 HD
BRANCH  19  21
HETATM   21  O   UNL     1       3.817   0.167   0.463  1.00  0.00    -0.167 OA
BRANCH  21  22
HETATM   22  S   UNL     1       5.274  -0.022   0.066  1.00  0.00     0.257 S 
HETATM   23  O   UNL     1       6.039   0.785   0.951  1.00  0.00    -0.578 OA
HETATM   24  O   UNL     1       5.473  -1.422  -0.078  1.00  0.00    -0.578 OA
BRANCH  22  25
HETATM   25  O   UNL     1       5.445   0.581  -1.322  1.00  0.00    -0.273 OA
HETATM   26  H   UNL     1       6.344   0.513  -1.672  1.00  0.00     0.234 HD
ENDBRANCH  22  25
ENDBRANCH  21  22
ENDBRANCH  19  21
ENDBRANCH   4  19
TORSDOF 10
