OZ0
  -OEChem-07282321083D

 36 36  0     1  0  0  0  0  0999 V2000
   -2.2570    0.3990   -0.3170 C   0  0  0  0  0  0  0  0  0  0  0  0
   -4.4120    1.4870    0.2940 C   0  0  0  0  0  0  0  0  0  0  0  0
   -4.2820   -0.9160   -0.3450 C   0  0  0  0  0  0  0  0  0  0  0  0
    4.4640    0.5470    0.3550 B   0  0  0  0  0  0  0  0  0  0  0  0
   -3.5520   -2.0180   -0.7420 C   0  0  0  0  0  0  0  0  0  0  0  0
   -2.1830   -1.9190   -0.9140 C   0  0  0  0  0  0  0  0  0  0  0  0
   -1.5390   -0.7120   -0.7070 C   0  0  0  0  0  0  0  0  0  0  0  0
   -0.0490   -0.6110   -0.9100 C   0  0  0  0  0  0  0  0  0  0  0  0
    2.9600    0.4650   -0.0890 C   0  0  1  0  0  0  0  0  0  0  0  0
    2.8670    0.6370   -1.6070 C   0  0  0  0  0  0  0  0  0  0  0  0
    3.4430    1.9980   -2.0020 C   0  0  0  0  0  0  0  0  0  0  0  0
   -3.6370    0.3030   -0.1300 C   0  0  0  0  0  0  0  0  0  0  0  0
    2.4100   -0.8390    0.2890 N   0  0  0  0  0  0  0  0  0  0  0  0
    5.4070   -0.3850   -0.1540 O   0  0  0  0  0  0  0  0  0  0  0  0
    4.8810    1.5530    1.2670 O   0  0  0  0  0  0  0  0  0  0  0  0
    0.5610    0.0390    1.6050 O   0  0  0  0  0  0  0  0  0  0  0  0
    0.6400   -2.3560    0.9880 O   0  0  0  0  0  0  0  0  0  0  0  0
   -3.8490    2.5470    0.4810 O   0  0  0  0  0  0  0  0  0  0  0  0
   -5.7440    1.3920    0.4740 O   0  0  0  0  0  0  0  0  0  0  0  0
    0.8000   -0.9850    0.6490 S   0  0  0  0  0  0  0  0  0  0  0  0
   -1.7520    1.3390   -0.1510 H   0  0  0  0  0  0  0  0  0  0  0  0
   -5.3500   -0.9970   -0.2030 H   0  0  0  0  0  0  0  0  0  0  0  0
   -4.0490   -2.9620   -0.9090 H   0  0  0  0  0  0  0  0  0  0  0  0
   -1.6170   -2.7840   -1.2240 H   0  0  0  0  0  0  0  0  0  0  0  0
    0.2640   -1.3230   -1.6730 H   0  0  0  0  0  0  0  0  0  0  0  0
    0.2070    0.4000   -1.2290 H   0  0  0  0  0  0  0  0  0  0  0  0
    2.3930    1.2550    0.4010 H   0  0  0  0  0  0  0  0  0  0  0  0
    3.4350   -0.1540   -2.0980 H   0  0  0  0  0  0  0  0  0  0  0  0
    1.8240    0.5800   -1.9160 H   0  0  0  0  0  0  0  0  0  0  0  0
    4.4860    2.0550   -1.6930 H   0  0  0  0  0  0  0  0  0  0  0  0
    3.3760    2.1210   -3.0830 H   0  0  0  0  0  0  0  0  0  0  0  0
    2.8750    2.7890   -1.5110 H   0  0  0  0  0  0  0  0  0  0  0  0
    2.9880   -1.6170    0.3280 H   0  0  0  0  0  0  0  0  0  0  0  0
    5.0300   -1.0310   -0.7670 H   0  0  0  0  0  0  0  0  0  0  0  0
    5.8230    1.5230    1.4810 H   0  0  0  0  0  0  0  0  0  0  0  0
   -6.2080    2.1940    0.7520 H   0  0  0  0  0  0  0  0  0  0  0  0
 10 11  1  0  0  0  0
 17 20  2  0  0  0  0
  9 10  1  0  0  0  0
 13 20  1  0  0  0  0
 16 20  2  0  0  0  0
  8 20  1  0  0  0  0
  4 14  1  0  0  0  0
  9 13  1  0  0  0  0
  4  9  1  0  0  0  0
  7  8  1  0  0  0  0
  4 15  1  0  0  0  0
  1  7  2  0  0  0  0
  6  7  1  0  0  0  0
  1 12  1  0  0  0  0
  5  6  2  0  0  0  0
  2 18  2  0  0  0  0
  2 12  1  0  0  0  0
  3 12  2  0  0  0  0
  2 19  1  0  0  0  0
  3  5  1  0  0  0  0
  1 21  1  0  0  0  0
  3 22  1  0  0  0  0
  5 23  1  0  0  0  0
  6 24  1  0  0  0  0
  8 25  1  0  0  0  0
  8 26  1  0  0  0  0
  9 27  1  0  0  0  0
 10 28  1  0  0  0  0
 10 29  1  0  0  0  0
 11 30  1  0  0  0  0
 11 31  1  0  0  0  0
 11 32  1  0  0  0  0
 13 33  1  0  0  0  0
 14 34  1  0  0  0  0
 15 35  1  0  0  0  0
 19 36  1  0  0  0  0
M  END
> <OPENEYE_ISO_SMILES>
B([C@@H](CC)NS(=O)(=O)Cc1cccc(c1)C(=O)O)(O)O

> <OPENEYE_INCHI>
InChI=1S/C11H16BNO6S/c1-2-10(12(16)17)13-20(18,19)7-8-4-3-5-9(6-8)11(14)15/h3-6,10,13,16-17H,2,7H2,1H3,(H,14,15)/t10-/m1/s1

> <OPENEYE_INCHIKEY>
NXMDVDQWQYARKG-SNVBAGLBSA-N

> <FORMULA>
C11H16BNO6S

$$$$
