OZ9
  -OEChem-07282321083D

 36 36  0     1  0  0  0  0  0999 V2000
   -2.4920   -0.4550   -0.3450 C   0  0  0  0  0  0  0  0  0  0  0  0
   -4.9220   -0.8630    0.0170 C   0  0  0  0  0  0  0  0  0  0  0  0
   -4.0350    1.3870   -0.5790 C   0  0  0  0  0  0  0  0  0  0  0  0
    4.1920   -0.9800   -0.7410 B   0  0  0  0  0  0  0  0  0  0  0  0
   -2.9800    2.2230   -0.8810 C   0  0  0  0  0  0  0  0  0  0  0  0
   -1.6890    1.7260   -0.9210 C   0  0  0  0  0  0  0  0  0  0  0  0
   -1.4470    0.3910   -0.6540 C   0  0  0  0  0  0  0  0  0  0  0  0
   -0.0370   -0.1410   -0.7000 C   0  0  0  0  0  0  0  0  0  0  0  0
    3.2040    0.0760   -0.1290 C   0  0  2  0  0  0  0  0  0  0  0  0
    3.9970    1.1060    0.6790 C   0  0  0  0  0  0  0  0  0  0  0  0
    4.9960    1.8140   -0.2380 C   0  0  0  0  0  0  0  0  0  0  0  0
   -3.7970    0.0380   -0.3080 C   0  0  0  0  0  0  0  0  0  0  0  0
    2.2470   -0.6010    0.7490 N   0  0  0  0  0  0  0  0  0  0  0  0
    3.6900   -2.0430   -1.5370 O   0  0  0  0  0  0  0  0  0  0  0  0
    5.5870   -0.8720   -0.4990 O   0  0  0  0  0  0  0  0  0  0  0  0
    0.9310    1.3790    1.2670 O   0  0  0  0  0  0  0  0  0  0  0  0
    0.1000   -0.8740    1.8620 O   0  0  0  0  0  0  0  0  0  0  0  0
   -6.1810   -0.3830    0.0520 O   0  0  0  0  0  0  0  0  0  0  0  0
   -4.7120   -2.0360    0.2520 O   0  0  0  0  0  0  0  0  0  0  0  0
    0.7210    0.0120    0.9400 S   0  0  0  0  0  0  0  0  0  0  0  0
   -2.3010   -1.4970   -0.1360 H   0  0  0  0  0  0  0  0  0  0  0  0
   -5.0430    1.7760   -0.5520 H   0  0  0  0  0  0  0  0  0  0  0  0
   -3.1630    3.2670   -1.0910 H   0  0  0  0  0  0  0  0  0  0  0  0
   -0.8670    2.3850   -1.1580 H   0  0  0  0  0  0  0  0  0  0  0  0
   -0.0550   -1.1900   -0.9960 H   0  0  0  0  0  0  0  0  0  0  0  0
    0.5430    0.4310   -1.4240 H   0  0  0  0  0  0  0  0  0  0  0  0
    2.6670    0.5800   -0.9320 H   0  0  0  0  0  0  0  0  0  0  0  0
    3.3110    1.8400    1.1040 H   0  0  0  0  0  0  0  0  0  0  0  0
    4.5340    0.6030    1.4820 H   0  0  0  0  0  0  0  0  0  0  0  0
    5.6810    1.0810   -0.6630 H   0  0  0  0  0  0  0  0  0  0  0  0
    4.4590    2.3180   -1.0410 H   0  0  0  0  0  0  0  0  0  0  0  0
    5.5610    2.5480    0.3370 H   0  0  0  0  0  0  0  0  0  0  0  0
    2.5080   -1.4100    1.2180 H   0  0  0  0  0  0  0  0  0  0  0  0
    2.7290   -2.0330   -1.6460 H   0  0  0  0  0  0  0  0  0  0  0  0
    6.1130   -1.5670   -0.9170 H   0  0  0  0  0  0  0  0  0  0  0  0
   -6.8830   -1.0110    0.2690 H   0  0  0  0  0  0  0  0  0  0  0  0
  3  5  2  0  0  0  0
  5  6  1  0  0  0  0
 17 20  2  0  0  0  0
  3 12  1  0  0  0  0
  6  7  2  0  0  0  0
 16 20  2  0  0  0  0
  2 12  1  0  0  0  0
  1 12  2  0  0  0  0
  8 20  1  0  0  0  0
 13 20  1  0  0  0  0
  1  7  1  0  0  0  0
  7  8  1  0  0  0  0
  2 19  2  0  0  0  0
  2 18  1  0  0  0  0
  9 13  1  0  0  0  0
  4 14  1  0  0  0  0
  4  9  1  0  0  0  0
  9 10  1  0  0  0  0
  4 15  1  0  0  0  0
 10 11  1  0  0  0  0
  1 21  1  0  0  0  0
  3 22  1  0  0  0  0
  5 23  1  0  0  0  0
  6 24  1  0  0  0  0
  8 25  1  0  0  0  0
  8 26  1  0  0  0  0
  9 27  1  0  0  0  0
 10 28  1  0  0  0  0
 10 29  1  0  0  0  0
 11 30  1  0  0  0  0
 11 31  1  0  0  0  0
 11 32  1  0  0  0  0
 13 33  1  0  0  0  0
 14 34  1  0  0  0  0
 15 35  1  0  0  0  0
 18 36  1  0  0  0  0
M  END
> <OPENEYE_ISO_SMILES>
B([C@H](CC)NS(=O)(=O)Cc1cccc(c1)C(=O)O)(O)O

> <OPENEYE_INCHI>
InChI=1S/C11H16BNO6S/c1-2-10(12(16)17)13-20(18,19)7-8-4-3-5-9(6-8)11(14)15/h3-6,10,13,16-17H,2,7H2,1H3,(H,14,15)/t10-/m0/s1

> <OPENEYE_INCHIKEY>
NXMDVDQWQYARKG-JTQLQIEISA-N

> <FORMULA>
C11H16BNO6S

$$$$
