REMARK  10 active torsions:
REMARK  status: ('A' for Active; 'I' for Inactive)
REMARK    1  A    between atoms: C_2  and  C_12 
REMARK    2  A    between atoms: C_2  and  O_18 
REMARK    3  A    between atoms: B_4  and  O_14 
REMARK    4  A    between atoms: B_4  and  C_9 
REMARK    5  A    between atoms: B_4  and  O_15 
REMARK    6  A    between atoms: C_7  and  C_8 
REMARK    7  A    between atoms: C_8  and  S_20 
REMARK    8  A    between atoms: C_9  and  N_13 
REMARK    9  A    between atoms: C_9  and  C_10 
REMARK   10  A    between atoms: N_13  and  S_20 
ROOT
HETATM    1  O   UNL     1       0.931   1.379   1.267  1.00  0.00    -0.206 OA
HETATM    2  O   UNL     1       0.100  -0.874   1.862  1.00  0.00    -0.206 OA
HETATM    3  S   UNL     1       0.721   0.012   0.940  1.00  0.00     0.230 S 
ENDROOT
BRANCH   3   4
HETATM    4  C   UNL     1      -0.037  -0.141  -0.700  1.00  0.00     0.201 C 
BRANCH   4   5
HETATM    5  C   UNL     1      -1.447   0.391  -0.654  1.00  0.00    -0.042 A 
HETATM    6  C   UNL     1      -2.492  -0.455  -0.345  1.00  0.00     0.026 A 
HETATM    7  C   UNL     1      -3.797   0.038  -0.308  1.00  0.00     0.038 A 
HETATM    8  C   UNL     1      -4.035   1.387  -0.579  1.00  0.00     0.018 A 
HETATM    9  C   UNL     1      -2.980   2.223  -0.881  1.00  0.00     0.002 A 
HETATM   10  C   UNL     1      -1.689   1.726  -0.921  1.00  0.00     0.008 A 
BRANCH   7  11
HETATM   11  C   UNL     1      -4.922  -0.863   0.017  1.00  0.00     0.176 C 
HETATM   12  O   UNL     1      -4.712  -2.036   0.252  1.00  0.00    -0.646 OA
BRANCH  11  13
HETATM   13  O   UNL     1      -6.181  -0.383   0.052  1.00  0.00    -0.773 OA
HETATM   14  H   UNL     1      -6.883  -1.011   0.269  1.00  0.00     0.167 HD
ENDBRANCH  11  13
ENDBRANCH   7  11
ENDBRANCH   4   5
ENDBRANCH   3   4
BRANCH   3  15
HETATM   15  N   UNL     1       2.247  -0.601   0.749  1.00  0.00    -0.318 N 
HETATM   16  H   UNL     1       2.508  -1.410   1.218  1.00  0.00     0.171 HD
BRANCH  15  17
HETATM   17  C   UNL     1       3.204   0.076  -0.129  1.00  0.00     0.118 C 
BRANCH  17  18
HETATM   18  B   UNL     1       4.192  -0.980  -0.741  1.00  0.00     0.515 B 
BRANCH  18  19
HETATM   19  O   UNL     1       3.690  -2.043  -1.537  1.00  0.00    -0.436 OA
HETATM   20  H   UNL     1       2.729  -2.033  -1.646  1.00  0.00     0.184 HD
ENDBRANCH  18  19
BRANCH  18  21
HETATM   21  O   UNL     1       5.587  -0.872  -0.499  1.00  0.00    -0.436 OA
HETATM   22  H   UNL     1       6.113  -1.567  -0.917  1.00  0.00     0.184 HD
ENDBRANCH  18  21
ENDBRANCH  17  18
BRANCH  17  23
HETATM   23  C   UNL     1       3.997   1.106   0.679  1.00  0.00     0.017 C 
HETATM   24  C   UNL     1       4.996   1.814  -0.238  1.00  0.00     0.006 C 
ENDBRANCH  17  23
ENDBRANCH  15  17
ENDBRANCH   3  15
TORSDOF 10
