OZF
  -OEChem-07282321083D

 41 41  0     1  0  0  0  0  0999 V2000
    3.3160    1.8150   -0.7010 C   0  0  0  0  0  0  0  0  0  0  0  0
    4.6060    2.0720   -1.1330 C   0  0  0  0  0  0  0  0  0  0  0  0
    5.6460    1.2620   -0.7270 C   0  0  0  0  0  0  0  0  0  0  0  0
    6.5040   -0.6910    0.5590 C   0  0  0  0  0  0  0  0  0  0  0  0
    4.0920   -0.0720    0.5520 C   0  0  0  0  0  0  0  0  0  0  0  0
   -3.0840   -0.2340    0.0050 B   0  0  0  0  0  0  0  0  0  0  0  0
   -2.3940    2.1680    1.5730 C   0  0  0  0  0  0  0  0  0  0  0  0
   -1.4300    0.9830    1.4850 C   0  0  0  0  0  0  0  0  0  0  0  0
   -1.6070    0.2810    0.1370 C   0  0  1  0  0  0  0  0  0  0  0  0
    1.6530    0.4740    0.6030 C   0  0  0  0  0  0  0  0  0  0  0  0
    3.0610    0.7460    0.1380 C   0  0  0  0  0  0  0  0  0  0  0  0
    5.3950    0.1810    0.1200 C   0  0  0  0  0  0  0  0  0  0  0  0
   -0.6850   -0.8540    0.0530 N   0  0  0  0  0  0  0  0  0  0  0  0
    0.6160    0.0140   -1.8120 O   0  0  0  0  0  0  0  0  0  0  0  0
    1.4190   -1.9360   -0.5180 O   0  0  0  0  0  0  0  0  0  0  0  0
    7.7610   -0.4430    0.1410 O   0  0  0  0  0  0  0  0  0  0  0  0
    6.2830   -1.6300    1.2960 O   0  0  0  0  0  0  0  0  0  0  0  0
   -3.3400   -1.6200   -0.1660 O   0  0  0  0  0  0  0  0  0  0  0  0
   -4.1650    0.6860    0.0570 O   0  0  0  0  0  0  0  0  0  0  0  0
   -5.8350   -1.0560    1.1000 O   0  0  0  0  0  0  0  0  0  0  0  0
   -6.7530    1.1390   -0.0190 O   0  0  0  0  0  0  0  0  0  0  0  0
   -5.6990   -0.6960   -1.3950 O   0  0  0  0  0  0  0  0  0  0  0  0
   -5.6150    0.0030   -0.0930 P   0  0  0  0  0  0  0  0  0  0  0  0
    0.8350   -0.6420   -0.5700 S   0  0  0  0  0  0  0  0  0  0  0  0
    2.5060    2.4550   -1.0180 H   0  0  0  0  0  0  0  0  0  0  0  0
    4.7980    2.9090   -1.7880 H   0  0  0  0  0  0  0  0  0  0  0  0
    6.6520    1.4630   -1.0650 H   0  0  0  0  0  0  0  0  0  0  0  0
    3.8910   -0.9060    1.2080 H   0  0  0  0  0  0  0  0  0  0  0  0
   -2.1800    2.8710    0.7670 H   0  0  0  0  0  0  0  0  0  0  0  0
   -3.4190    1.8110    1.4810 H   0  0  0  0  0  0  0  0  0  0  0  0
   -2.2680    2.6690    2.5330 H   0  0  0  0  0  0  0  0  0  0  0  0
   -0.4050    1.3410    1.5770 H   0  0  0  0  0  0  0  0  0  0  0  0
   -1.6440    0.2810    2.2910 H   0  0  0  0  0  0  0  0  0  0  0  0
   -1.3940    0.9830   -0.6690 H   0  0  0  0  0  0  0  0  0  0  0  0
    1.6790    0.0100    1.5880 H   0  0  0  0  0  0  0  0  0  0  0  0
    1.1010    1.4120    0.6570 H   0  0  0  0  0  0  0  0  0  0  0  0
   -0.9640   -1.7300    0.3620 H   0  0  0  0  0  0  0  0  0  0  0  0
    8.4540   -1.0410    0.4550 H   0  0  0  0  0  0  0  0  0  0  0  0
   -4.2790   -1.8410   -0.2380 H   0  0  0  0  0  0  0  0  0  0  0  0
   -5.7930   -0.6660    1.9840 H   0  0  0  0  0  0  0  0  0  0  0  0
   -7.6550    0.7980   -0.1030 H   0  0  0  0  0  0  0  0  0  0  0  0
 22 23  2  0  0  0  0
 21 23  1  0  0  0  0
 20 23  1  0  0  0  0
 19 23  1  0  0  0  0
  6 19  1  0  0  0  0
  6  9  1  0  0  0  0
  6 18  1  0  0  0  0
  7  8  1  0  0  0  0
  8  9  1  0  0  0  0
  9 13  1  0  0  0  0
 13 24  1  0  0  0  0
 15 24  2  0  0  0  0
 10 24  1  0  0  0  0
 14 24  2  0  0  0  0
 10 11  1  0  0  0  0
  1 11  2  0  0  0  0
  1  2  1  0  0  0  0
  5 11  1  0  0  0  0
  2  3  2  0  0  0  0
  5 12  2  0  0  0  0
  3 12  1  0  0  0  0
  4 12  1  0  0  0  0
  4 17  2  0  0  0  0
  4 16  1  0  0  0  0
  1 25  1  0  0  0  0
  2 26  1  0  0  0  0
  3 27  1  0  0  0  0
  5 28  1  0  0  0  0
  7 29  1  0  0  0  0
  7 30  1  0  0  0  0
  7 31  1  0  0  0  0
  8 32  1  0  0  0  0
  8 33  1  0  0  0  0
  9 34  1  0  0  0  0
 10 35  1  0  0  0  0
 10 36  1  0  0  0  0
 13 37  1  0  0  0  0
 16 38  1  0  0  0  0
 18 39  1  0  0  0  0
 20 40  1  0  0  0  0
 21 41  1  0  0  0  0
M  END
> <OPENEYE_ISO_SMILES>
B([C@@H](CC)NS(=O)(=O)Cc1cccc(c1)C(=O)O)(O)OP(=O)(O)O

> <OPENEYE_INCHI>
InChI=1S/C11H17BNO9PS/c1-2-10(12(16)22-23(17,18)19)13-24(20,21)7-8-4-3-5-9(6-8)11(14)15/h3-6,10,13,16H,2,7H2,1H3,(H,14,15)(H2,17,18,19)/t10-/m1/s1

> <OPENEYE_INCHIKEY>
OKRPHJKYNCLTSY-SNVBAGLBSA-N

> <FORMULA>
C11H17BNO9PS

$$$$
