REMARK  13 active torsions:
REMARK  status: ('A' for Active; 'I' for Inactive)
REMARK    1  A    between atoms: C_4  and  C_12 
REMARK    2  A    between atoms: C_4  and  O_16 
REMARK    3  A    between atoms: B_6  and  O_19 
REMARK    4  A    between atoms: B_6  and  C_9 
REMARK    5  A    between atoms: B_6  and  O_18 
REMARK    6  A    between atoms: C_8  and  C_9 
REMARK    7  A    between atoms: C_9  and  N_13 
REMARK    8  A    between atoms: C_10  and  S_24 
REMARK    9  A    between atoms: C_10  and  C_11 
REMARK   10  A    between atoms: N_13  and  S_24 
REMARK   11  A    between atoms: O_19  and  P_23 
REMARK   12  A    between atoms: O_20  and  P_23 
REMARK   13  A    between atoms: O_21  and  P_23 
ROOT
HETATM    1  N   UNL     1      -0.685  -0.854   0.053  1.00  0.00    -0.318 N 
HETATM    2  H   UNL     1      -0.964  -1.730   0.362  1.00  0.00     0.171 HD
ENDROOT
BRANCH   1   3
HETATM    3  C   UNL     1      -1.607   0.281   0.137  1.00  0.00     0.119 C 
BRANCH   3   4
HETATM    4  B   UNL     1      -3.084  -0.234   0.005  1.00  0.00     0.526 B 
BRANCH   4   5
HETATM    5  O   UNL     1      -4.165   0.686   0.057  1.00  0.00    -0.333 OA
BRANCH   5   6
HETATM    6  P   UNL     1      -5.615   0.003  -0.093  1.00  0.00     0.375 P 
HETATM    7  O   UNL     1      -5.699  -0.696  -1.395  1.00  0.00    -0.632 OA
BRANCH   6   8
HETATM    8  O   UNL     1      -5.835  -1.056   1.100  1.00  0.00    -0.308 OA
HETATM    9  H   UNL     1      -5.793  -0.666   1.984  1.00  0.00     0.222 HD
ENDBRANCH   6   8
BRANCH   6  10
HETATM   10  O   UNL     1      -6.753   1.139  -0.019  1.00  0.00    -0.308 OA
HETATM   11  H   UNL     1      -7.655   0.798  -0.103  1.00  0.00     0.222 HD
ENDBRANCH   6  10
ENDBRANCH   5   6
ENDBRANCH   4   5
BRANCH   4  12
HETATM   12  O   UNL     1      -3.340  -1.620  -0.166  1.00  0.00    -0.436 OA
HETATM   13  H   UNL     1      -4.279  -1.841  -0.238  1.00  0.00     0.184 HD
ENDBRANCH   4  12
ENDBRANCH   3   4
BRANCH   3  14
HETATM   14  C   UNL     1      -1.430   0.983   1.485  1.00  0.00     0.017 C 
HETATM   15  C   UNL     1      -2.394   2.168   1.573  1.00  0.00     0.006 C 
ENDBRANCH   3  14
ENDBRANCH   1   3
BRANCH   1  16
HETATM   16  S   UNL     1       0.835  -0.642  -0.570  1.00  0.00     0.230 S 
HETATM   17  O   UNL     1       0.616   0.014  -1.812  1.00  0.00    -0.206 OA
HETATM   18  O   UNL     1       1.419  -1.936  -0.518  1.00  0.00    -0.206 OA
BRANCH  16  19
HETATM   19  C   UNL     1       1.653   0.474   0.603  1.00  0.00     0.201 C 
BRANCH  19  20
HETATM   20  C   UNL     1       3.061   0.746   0.138  1.00  0.00    -0.042 A 
HETATM   21  C   UNL     1       3.316   1.815  -0.701  1.00  0.00     0.008 A 
HETATM   22  C   UNL     1       4.606   2.072  -1.133  1.00  0.00     0.002 A 
HETATM   23  C   UNL     1       5.646   1.262  -0.727  1.00  0.00     0.018 A 
HETATM   24  C   UNL     1       5.395   0.181   0.120  1.00  0.00     0.038 A 
HETATM   25  C   UNL     1       4.092  -0.072   0.552  1.00  0.00     0.026 A 
BRANCH  24  26
HETATM   26  C   UNL     1       6.504  -0.691   0.559  1.00  0.00     0.176 C 
HETATM   27  O   UNL     1       6.283  -1.630   1.296  1.00  0.00    -0.646 OA
BRANCH  26  28
HETATM   28  O   UNL     1       7.761  -0.443   0.141  1.00  0.00    -0.773 OA
HETATM   29  H   UNL     1       8.454  -1.041   0.455  1.00  0.00     0.167 HD
ENDBRANCH  26  28
ENDBRANCH  24  26
ENDBRANCH  19  20
ENDBRANCH  16  19
ENDBRANCH   1  16
TORSDOF 13
