OZO
  -OEChem-07282321083D

 41 41  0     1  0  0  0  0  0999 V2000
    4.5280    1.3090    1.9070 C   0  0  0  0  0  0  0  0  0  0  0  0
    6.1450   -1.3880   -0.1460 C   0  0  0  0  0  0  0  0  0  0  0  0
    5.1170   -0.5190    0.4650 C   0  0  0  0  0  0  0  0  0  0  0  0
    5.4920    0.5020    1.3410 C   0  0  0  0  0  0  0  0  0  0  0  0
    3.1910    1.1050    1.6140 C   0  0  0  0  0  0  0  0  0  0  0  0
    3.7660   -0.7230    0.1780 C   0  0  0  0  0  0  0  0  0  0  0  0
   -2.9030   -0.0560   -0.2440 B   0  0  0  0  0  0  0  0  0  0  0  0
   -3.2240    2.7790    0.5110 C   0  0  0  0  0  0  0  0  0  0  0  0
   -2.1980    2.3570   -0.5440 C   0  0  0  0  0  0  0  0  0  0  0  0
   -1.6950    0.9470   -0.2300 C   0  0  2  0  0  0  0  0  0  0  0  0
    1.3540   -0.1220    0.4380 C   0  0  0  0  0  0  0  0  0  0  0  0
    2.8120    0.0920    0.7520 C   0  0  0  0  0  0  0  0  0  0  0  0
   -0.7130    0.5430   -1.2400 N   0  0  0  0  0  0  0  0  0  0  0  0
    0.9290    2.2550   -0.6960 O   0  0  0  0  0  0  0  0  0  0  0  0
    1.5250    0.3660   -2.1790 O   0  0  0  0  0  0  0  0  0  0  0  0
    5.8150   -2.2750   -0.9070 O   0  0  0  0  0  0  0  0  0  0  0  0
    7.4470   -1.1950    0.1410 O   0  0  0  0  0  0  0  0  0  0  0  0
   -2.9100   -1.1460   -1.1540 O   0  0  0  0  0  0  0  0  0  0  0  0
   -3.9890    0.1280    0.6520 O   0  0  0  0  0  0  0  0  0  0  0  0
   -6.3170   -0.6710    1.5750 O   0  0  0  0  0  0  0  0  0  0  0  0
   -5.7510   -0.9440   -0.9780 O   0  0  0  0  0  0  0  0  0  0  0  0
   -4.5800   -2.3220    0.7830 O   0  0  0  0  0  0  0  0  0  0  0  0
   -5.1470   -0.9820    0.5140 P   0  0  0  0  0  0  0  0  0  0  0  0
    0.8940    0.8690   -1.0090 S   0  0  0  0  0  0  0  0  0  0  0  0
    4.8170    2.0990    2.5850 H   0  0  0  0  0  0  0  0  0  0  0  0
    6.5350    0.6590    1.5730 H   0  0  0  0  0  0  0  0  0  0  0  0
    2.4400    1.7400    2.0600 H   0  0  0  0  0  0  0  0  0  0  0  0
    3.4690   -1.5110   -0.4980 H   0  0  0  0  0  0  0  0  0  0  0  0
   -4.0620    2.0830    0.5010 H   0  0  0  0  0  0  0  0  0  0  0  0
   -2.7560    2.7700    1.4960 H   0  0  0  0  0  0  0  0  0  0  0  0
   -3.5830    3.7830    0.2870 H   0  0  0  0  0  0  0  0  0  0  0  0
   -2.6660    2.3650   -1.5280 H   0  0  0  0  0  0  0  0  0  0  0  0
   -1.3600    3.0530   -0.5340 H   0  0  0  0  0  0  0  0  0  0  0  0
   -1.2270    0.9390    0.7550 H   0  0  0  0  0  0  0  0  0  0  0  0
    1.1790   -1.1770    0.2270 H   0  0  0  0  0  0  0  0  0  0  0  0
    0.7500    0.1820    1.2940 H   0  0  0  0  0  0  0  0  0  0  0  0
   -1.0050    0.0850   -2.0440 H   0  0  0  0  0  0  0  0  0  0  0  0
    8.0820   -1.7880   -0.2830 H   0  0  0  0  0  0  0  0  0  0  0  0
   -3.6940   -1.7080   -1.0890 H   0  0  0  0  0  0  0  0  0  0  0  0
   -7.0500   -1.3010    1.5480 H   0  0  0  0  0  0  0  0  0  0  0  0
   -6.1400   -0.0930   -1.2240 H   0  0  0  0  0  0  0  0  0  0  0  0
 22 23  2  0  0  0  0
 20 23  1  0  0  0  0
 21 23  1  0  0  0  0
 19 23  1  0  0  0  0
  7 19  1  0  0  0  0
  8  9  1  0  0  0  0
  9 10  1  0  0  0  0
  7 10  1  0  0  0  0
  7 18  1  0  0  0  0
 10 13  1  0  0  0  0
 13 24  1  0  0  0  0
 15 24  2  0  0  0  0
 11 24  1  0  0  0  0
 14 24  2  0  0  0  0
 11 12  1  0  0  0  0
  5 12  2  0  0  0  0
  6 12  1  0  0  0  0
  1  5  1  0  0  0  0
  3  6  2  0  0  0  0
  1  4  2  0  0  0  0
  3  4  1  0  0  0  0
  2  3  1  0  0  0  0
  2 16  2  0  0  0  0
  2 17  1  0  0  0  0
  1 25  1  0  0  0  0
  4 26  1  0  0  0  0
  5 27  1  0  0  0  0
  6 28  1  0  0  0  0
  8 29  1  0  0  0  0
  8 30  1  0  0  0  0
  8 31  1  0  0  0  0
  9 32  1  0  0  0  0
  9 33  1  0  0  0  0
 10 34  1  0  0  0  0
 11 35  1  0  0  0  0
 11 36  1  0  0  0  0
 13 37  1  0  0  0  0
 17 38  1  0  0  0  0
 18 39  1  0  0  0  0
 20 40  1  0  0  0  0
 21 41  1  0  0  0  0
M  END
> <OPENEYE_ISO_SMILES>
B([C@H](CC)NS(=O)(=O)Cc1cccc(c1)C(=O)O)(O)OP(=O)(O)O

> <OPENEYE_INCHI>
InChI=1S/C11H17BNO9PS/c1-2-10(12(16)22-23(17,18)19)13-24(20,21)7-8-4-3-5-9(6-8)11(14)15/h3-6,10,13,16H,2,7H2,1H3,(H,14,15)(H2,17,18,19)/t10-/m0/s1

> <OPENEYE_INCHIKEY>
OKRPHJKYNCLTSY-JTQLQIEISA-N

> <FORMULA>
C11H17BNO9PS

$$$$
