P1K
  -OEChem-07282321083D

 34 34  0     0  0  0  0  0  0999 V2000
    6.4600   -0.1640   -0.1200 F   0  0  0  0  0  0  0  0  0  0  0  0
    5.7590    0.9290   -0.6390 C   0  0  0  0  0  0  0  0  0  0  0  0
    5.8590    2.0100    0.2440 F   0  0  0  0  0  0  0  0  0  0  0  0
    6.3030    1.2870   -1.8770 F   0  0  0  0  0  0  0  0  0  0  0  0
    4.2870    0.5530   -0.8190 C   0  0  0  0  0  0  0  0  0  0  0  0
    3.5810    0.0890    0.7860 S   0  0  0  0  0  0  0  0  0  0  0  0
    4.1440   -1.1320    1.2450 O   0  0  0  0  0  0  0  0  0  0  0  0
    3.4940    1.2220    1.6390 O   0  0  0  0  0  0  0  0  0  0  0  0
    2.0040   -0.2900    0.4500 N   0  0  0  0  0  0  0  0  0  0  0  0
    1.6930   -1.4420   -0.4000 C   0  0  0  0  0  0  0  0  0  0  0  0
    0.2340   -1.7930   -0.2550 C   0  0  0  0  0  0  0  0  0  0  0  0
   -0.3130   -2.5670    0.6880 N   0  0  0  0  0  0  0  0  0  0  0  0
   -1.5820   -2.6350    0.4860 N   0  0  0  0  0  0  0  0  0  0  0  0
   -0.7800   -1.3810   -1.0510 C   0  0  0  0  0  0  0  0  0  0  0  0
   -1.9050   -1.9410   -0.5490 N   0  0  0  0  0  0  0  0  0  0  0  0
   -3.2580   -1.7800   -1.0860 C   0  0  0  0  0  0  0  0  0  0  0  0
   -3.9410   -0.5340   -0.4190 B   0  0  0  0  0  0  0  0  0  0  0  0
   -5.2660   -0.1720   -0.7810 O   0  0  0  0  0  0  0  0  0  0  0  0
   -3.2350    0.2310    0.5460 O   0  0  0  0  0  0  0  0  0  0  0  0
   -5.8240    1.1260   -0.0090 P   0  0  0  0  0  0  0  0  0  0  0  0
   -4.9570    2.2880   -0.3080 O   0  0  0  0  0  0  0  0  0  0  0  0
   -7.3260    1.4370   -0.4990 O   0  0  0  0  0  0  0  0  0  0  0  0
   -5.8230    0.8500    1.5770 O   0  0  0  0  0  0  0  0  0  0  0  0
    3.7400    1.4050   -1.2240 H   0  0  0  0  0  0  0  0  0  0  0  0
    4.2080   -0.2890   -1.5070 H   0  0  0  0  0  0  0  0  0  0  0  0
    1.2870    0.2510    0.8160 H   0  0  0  0  0  0  0  0  0  0  0  0
    1.9060   -1.1940   -1.4390 H   0  0  0  0  0  0  0  0  0  0  0  0
    2.3030   -2.2930   -0.0960 H   0  0  0  0  0  0  0  0  0  0  0  0
   -0.7070   -0.7370   -1.9150 H   0  0  0  0  0  0  0  0  0  0  0  0
   -3.2050   -1.6320   -2.1650 H   0  0  0  0  0  0  0  0  0  0  0  0
   -3.8430   -2.6740   -0.8710 H   0  0  0  0  0  0  0  0  0  0  0  0
   -3.7370    0.9780    0.9000 H   0  0  0  0  0  0  0  0  0  0  0  0
   -7.7260    2.2080   -0.0750 H   0  0  0  0  0  0  0  0  0  0  0  0
   -6.3720    0.1010    1.8460 H   0  0  0  0  0  0  0  0  0  0  0  0
  1  2  1  0  0  0  0
  2  3  1  0  0  0  0
  2  4  1  0  0  0  0
  2  5  1  0  0  0  0
 13 15  1  0  0  0  0
 12 13  2  0  0  0  0
 15 16  1  0  0  0  0
 16 17  1  0  0  0  0
  5  6  1  0  0  0  0
 14 15  1  0  0  0  0
 11 12  1  0  0  0  0
 17 19  1  0  0  0  0
 17 18  1  0  0  0  0
 11 14  2  0  0  0  0
  6  9  1  0  0  0  0
  6  8  2  0  0  0  0
  6  7  2  0  0  0  0
 10 11  1  0  0  0  0
  9 10  1  0  0  0  0
 18 20  1  0  0  0  0
 20 21  2  0  0  0  0
 20 22  1  0  0  0  0
 20 23  1  0  0  0  0
  5 24  1  0  0  0  0
  5 25  1  0  0  0  0
  9 26  1  0  0  0  0
 10 27  1  0  0  0  0
 10 28  1  0  0  0  0
 14 29  1  0  0  0  0
 16 30  1  0  0  0  0
 16 31  1  0  0  0  0
 19 32  1  0  0  0  0
 22 33  1  0  0  0  0
 23 34  1  0  0  0  0
M  END
> <OPENEYE_ISO_SMILES>
B(Cn1cc(nn1)CNS(=O)(=O)CC(F)(F)F)(O)OP(=O)(O)O

> <OPENEYE_INCHI>
InChI=1S/C6H11BF3N4O7PS/c8-6(9,10)3-23(19,20)11-1-5-2-14(13-12-5)4-7(15)21-22(16,17)18/h2,11,15H,1,3-4H2,(H2,16,17,18)

> <OPENEYE_INCHIKEY>
VRNTWRQJSAWSEY-UHFFFAOYSA-N

> <FORMULA>
C6H11BF3N4O7PS

$$$$
