PBC
  -OEChem-07282321083D

 16 16  0     0  0  0  0  0  0999 V2000
    0.0000   -0.0000    1.6770 B   0  0  0  0  0  0  0  0  0  0  0  0
    1.2290   -0.0010    2.3870 O   0  0  0  0  0  0  0  0  0  0  0  0
   -1.2290    0.0000    2.3870 O   0  0  0  0  0  0  0  0  0  0  0  0
    1.1990   -0.0010   -1.9720 C   0  0  0  0  0  0  0  0  0  0  0  0
    0.0000   -0.0000   -2.6610 C   0  0  0  0  0  0  0  0  0  0  0  0
   -1.1990    0.0000   -1.9720 C   0  0  0  0  0  0  0  0  0  0  0  0
   -1.2050    0.0000   -0.5920 C   0  0  0  0  0  0  0  0  0  0  0  0
    0.0000   -0.0000    0.1070 C   0  0  0  0  0  0  0  0  0  0  0  0
    1.2050    0.0040   -0.5920 C   0  0  0  0  0  0  0  0  0  0  0  0
    1.0080   -0.0000    3.3280 H   0  0  0  0  0  0  0  0  0  0  0  0
   -1.0080    0.0000    3.3280 H   0  0  0  0  0  0  0  0  0  0  0  0
    2.1330   -0.0020   -2.5150 H   0  0  0  0  0  0  0  0  0  0  0  0
    0.0000   -0.0010   -3.7410 H   0  0  0  0  0  0  0  0  0  0  0  0
   -2.1330    0.0000   -2.5150 H   0  0  0  0  0  0  0  0  0  0  0  0
   -2.1420    0.0000   -0.0550 H   0  0  0  0  0  0  0  0  0  0  0  0
    2.1420    0.0030   -0.0550 H   0  0  0  0  0  0  0  0  0  0  0  0
  1  2  1  0  0  0  0
  1  3  1  0  0  0  0
  1  8  1  0  0  0  0
  2 10  1  0  0  0  0
  3 11  1  0  0  0  0
  4  5  2  0  0  0  0
  4  9  1  0  0  0  0
  4 12  1  0  0  0  0
  5  6  1  0  0  0  0
  5 13  1  0  0  0  0
  6  7  2  0  0  0  0
  6 14  1  0  0  0  0
  7  8  1  0  0  0  0
  7 15  1  0  0  0  0
  8  9  2  0  0  0  0
  9 16  1  0  0  0  0
M  END
> <OPENEYE_ISO_SMILES>
B(c1ccccc1)(O)O

> <OPENEYE_INCHI>
InChI=1S/C6H7BO2/c8-7(9)6-4-2-1-3-5-6/h1-5,8-9H

> <OPENEYE_INCHIKEY>
HXITXNWTGFUOAU-UHFFFAOYSA-N

> <FORMULA>
C6H7BO2

$$$$
