REMARK  9 active torsions:
REMARK  status: ('A' for Active; 'I' for Inactive)
REMARK    1  A    between atoms: C_2  and  CA_3 
REMARK    2  A    between atoms: CA_3  and  C_4 
REMARK    3  A    between atoms: CA_3  and  N_14 
REMARK    4  A    between atoms: CA_9  and  C_10 
REMARK    5  A    between atoms: C_10  and  OXT_12 
REMARK       I    between atoms: N_14  and  C_15 
REMARK    6  A    between atoms: C_15  and  C_17 
REMARK    7  A    between atoms: C_17  and  C_21 
REMARK    8  A    between atoms: N_18  and  O_19 
REMARK    9  A    between atoms: C_24  and  N_26 
ROOT
HETATM    1  N   UNL     1       0.798  -0.828  -0.060  1.00  0.00    -0.342 N 
HETATM    2  C   UNL     1       2.015  -1.350   0.189  1.00  0.00     0.275 C 
HETATM    3  O   UNL     1       2.135  -2.542   0.395  1.00  0.00    -0.266 OA
HETATM    4  H   UNL     1       0.712   0.107  -0.303  1.00  0.00     0.163 HD
ENDROOT
BRANCH   1   5
HETATM    5  CA  UNL     1      -0.395  -1.673   0.035  1.00  0.00     0.189 C 
BRANCH   5   6
HETATM    6  C   UNL     1      -0.600  -2.402  -1.267  1.00  0.00     0.259 C 
HETATM    7  O   UNL     1       0.171  -2.233  -2.181  1.00  0.00    -0.305 OA
ENDBRANCH   5   6
BRANCH   5   8
HETATM    8  C   UNL     1      -1.616  -0.799   0.329  1.00  0.00     0.312 C 
HETATM    9  S   UNL     1      -1.987   0.337  -1.081  1.00  0.00    -0.119 SA
HETATM   10  C   UNL     1      -3.813   0.423  -0.835  1.00  0.00     0.044 C 
HETATM   11  C   UNL     1      -4.554   0.252  -2.162  1.00  0.00     0.029 C 
HETATM   12  C   UNL     1      -4.212   1.733  -0.153  1.00  0.00     0.029 C 
HETATM   13  CA  UNL     1      -4.063  -0.784   0.097  1.00  0.00     0.336 C 
HETATM   14  N   UNL     1      -2.873  -1.605   0.335  1.00  0.00     0.116 N 
HETATM   15  H   UNL     1      -2.967  -1.989   1.263  1.00  0.00     0.318 HD
BRANCH  13  16
HETATM   16  C   UNL     1      -4.564  -0.269   1.422  1.00  0.00     0.175 C 
HETATM   17  O   UNL     1      -3.834  -0.265   2.384  1.00  0.00    -0.648 OA
BRANCH  16  18
HETATM   18  OXT UNL     1      -5.822   0.186   1.532  1.00  0.00    -0.775 OA
HETATM   19  HXT UNL     1      -6.144   0.517   2.382  1.00  0.00     0.167 HD
ENDBRANCH  16  18
ENDBRANCH  13  16
ENDBRANCH   5   8
ENDBRANCH   1   5
BRANCH   2  20
HETATM   20  C   UNL     1       3.208  -0.471   0.213  1.00  0.00     0.180 C 
HETATM   21  N   UNL     1       4.398  -0.991   0.321  1.00  0.00    -0.126 NA
BRANCH  21  22
HETATM   22  O   UNL     1       4.546  -2.381   0.548  1.00  0.00    -0.261 OA
HETATM   23  C   UNL     1       5.949  -2.641   0.619  1.00  0.00     0.240 C 
ENDBRANCH  21  22
BRANCH  20  24
HETATM   24  C   UNL     1       3.048   0.995   0.113  1.00  0.00     0.102 A 
HETATM   25  C   UNL     1       4.141   1.802  -0.064  1.00  0.00     0.087 A 
HETATM   26  S   UNL     1       3.363   3.411  -0.112  1.00  0.00    -0.062 SA
HETATM   27  C   UNL     1       1.679   2.855   0.105  1.00  0.00     0.164 A 
HETATM   28  N   UNL     1       1.838   1.548   0.188  1.00  0.00    -0.222 NA
BRANCH  27  29
HETATM   29  N   UNL     1       0.513   3.600   0.165  1.00  0.00    -0.378 N 
HETATM   30  H   UNL     1       0.549   4.566   0.084  1.00  0.00     0.158 HD
HETATM   31  H   UNL     1      -0.341   3.156   0.288  1.00  0.00     0.158 HD
ENDBRANCH  27  29
ENDBRANCH  20  24
ENDBRANCH   2  20
TORSDOF 9
