PCN
  -OEChem-07282321083D

 45 46  0     1  0  0  0  0  0999 V2000
    0.1710   -2.2330   -2.1810 O   0  0  0  0  0  0  0  0  0  0  0  0
   -0.6000   -2.4020   -1.2670 C   0  0  0  0  0  0  0  0  0  0  0  0
   -0.3950   -1.6730    0.0350 C   0  0  2  0  0  0  0  0  0  0  0  0
   -1.6160   -0.7990    0.3290 C   0  0  1  0  0  0  0  0  0  0  0  0
   -1.9870    0.3370   -1.0810 S   0  0  0  0  0  0  0  0  0  0  0  0
   -3.8130    0.4230   -0.8350 C   0  0  0  0  0  0  0  0  0  0  0  0
   -4.5540    0.2520   -2.1620 C   0  0  0  0  0  0  0  0  0  0  0  0
   -4.2120    1.7330   -0.1530 C   0  0  0  0  0  0  0  0  0  0  0  0
   -4.0630   -0.7840    0.0970 C   0  0  2  0  0  0  0  0  0  0  0  0
   -4.5640   -0.2690    1.4220 C   0  0  0  0  0  0  0  0  0  0  0  0
   -3.8340   -0.2650    2.3840 O   0  0  0  0  0  0  0  0  0  0  0  0
   -5.8220    0.1860    1.5320 O   0  0  0  0  0  0  0  0  0  0  0  0
   -2.8730   -1.6050    0.3350 N   0  0  0  0  0  0  0  0  0  0  0  0
    0.7980   -0.8280   -0.0600 N   0  0  0  0  0  0  0  0  0  0  0  0
    2.0150   -1.3500    0.1890 C   0  0  0  0  0  0  0  0  0  0  0  0
    2.1350   -2.5420    0.3950 O   0  0  0  0  0  0  0  0  0  0  0  0
    3.2080   -0.4710    0.2130 C   0  0  0  0  0  0  0  0  0  0  0  0
    4.3980   -0.9910    0.3210 N   0  0  0  0  0  0  0  0  0  0  0  0
    4.5460   -2.3810    0.5480 O   0  0  0  0  0  0  0  0  0  0  0  0
    5.9490   -2.6410    0.6190 C   0  0  0  0  0  0  0  0  0  0  0  0
    3.0480    0.9950    0.1130 C   0  0  0  0  0  0  0  0  0  0  0  0
    4.1410    1.8020   -0.0640 C   0  0  0  0  0  0  0  0  0  0  0  0
    3.3630    3.4110   -0.1120 S   0  0  0  0  0  0  0  0  0  0  0  0
    1.6790    2.8550    0.1050 C   0  0  0  0  0  0  0  0  0  0  0  0
    1.8380    1.5480    0.1880 N   0  0  0  0  0  0  0  0  0  0  0  0
    0.5130    3.6000    0.1650 N   0  0  0  0  0  0  0  0  0  0  0  0
   -1.4360   -3.0750   -1.3840 H   0  0  0  0  0  0  0  0  0  0  0  0
   -0.2640   -2.3970    0.8400 H   0  0  0  0  0  0  0  0  0  0  0  0
   -1.4920   -0.2480    1.2610 H   0  0  0  0  0  0  0  0  0  0  0  0
   -5.6250    0.1720   -1.9730 H   0  0  0  0  0  0  0  0  0  0  0  0
   -4.3620    1.1150   -2.8000 H   0  0  0  0  0  0  0  0  0  0  0  0
   -4.2050   -0.6520   -2.6600 H   0  0  0  0  0  0  0  0  0  0  0  0
   -3.6230    1.8650    0.7550 H   0  0  0  0  0  0  0  0  0  0  0  0
   -4.0260    2.5670   -0.8300 H   0  0  0  0  0  0  0  0  0  0  0  0
   -5.2710    1.7020    0.1030 H   0  0  0  0  0  0  0  0  0  0  0  0
   -4.8360   -1.4120   -0.3460 H   0  0  0  0  0  0  0  0  0  0  0  0
   -6.1440    0.5170    2.3820 H   0  0  0  0  0  0  0  0  0  0  0  0
   -2.9670   -1.9890    1.2630 H   0  0  0  0  0  0  0  0  0  0  0  0
    0.7120    0.1070   -0.3030 H   0  0  0  0  0  0  0  0  0  0  0  0
    6.3840   -2.0670    1.4380 H   0  0  0  0  0  0  0  0  0  0  0  0
    6.1140   -3.7040    0.7930 H   0  0  0  0  0  0  0  0  0  0  0  0
    6.4210   -2.3490   -0.3190 H   0  0  0  0  0  0  0  0  0  0  0  0
    5.1840    1.5380   -0.1500 H   0  0  0  0  0  0  0  0  0  0  0  0
    0.5490    4.5660    0.0840 H   0  0  0  0  0  0  0  0  0  0  0  0
   -0.3410    3.1560    0.2880 H   0  0  0  0  0  0  0  0  0  0  0  0
  1  2  2  0  0  0  0
  2  3  1  0  0  0  0
  2 27  1  0  0  0  0
  3  4  1  0  0  0  0
  3 14  1  0  0  0  0
  3 28  1  0  0  0  0
  4  5  1  0  0  0  0
  4 13  1  0  0  0  0
  4 29  1  0  0  0  0
  5  6  1  0  0  0  0
  6  7  1  0  0  0  0
  6  8  1  0  0  0  0
  6  9  1  0  0  0  0
  7 30  1  0  0  0  0
  7 31  1  0  0  0  0
  7 32  1  0  0  0  0
  8 33  1  0  0  0  0
  8 34  1  0  0  0  0
  8 35  1  0  0  0  0
  9 10  1  0  0  0  0
  9 13  1  0  0  0  0
  9 36  1  0  0  0  0
 10 11  2  0  0  0  0
 10 12  1  0  0  0  0
 12 37  1  0  0  0  0
 13 38  1  0  0  0  0
 14 15  1  0  0  0  0
 14 39  1  0  0  0  0
 15 16  2  0  0  0  0
 15 17  1  0  0  0  0
 17 18  2  0  0  0  0
 17 21  1  0  0  0  0
 18 19  1  0  0  0  0
 19 20  1  0  0  0  0
 20 40  1  0  0  0  0
 20 41  1  0  0  0  0
 20 42  1  0  0  0  0
 21 22  2  0  0  0  0
 21 25  1  0  0  0  0
 22 23  1  0  0  0  0
 22 43  1  0  0  0  0
 23 24  1  0  0  0  0
 24 25  2  0  0  0  0
 24 26  1  0  0  0  0
 26 44  1  0  0  0  0
 26 45  1  0  0  0  0
M  END
> <OPENEYE_ISO_SMILES>
CC1([C@@H](N[C@H](S1)[C@@H](C=O)NC(=O)/C(=N\OC)/c2csc(n2)N)C(=O)O)C

> <OPENEYE_INCHI>
InChI=1S/C14H19N5O5S2/c1-14(2)9(12(22)23)18-11(26-14)6(4-20)16-10(21)8(19-24-3)7-5-25-13(15)17-7/h4-6,9,11,18H,1-3H3,(H2,15,17)(H,16,21)(H,22,23)/b19-8-/t6-,9+,11-/m1/s1

> <OPENEYE_INCHIKEY>
YVNKGXXVZIQNIV-RKMXGKDGSA-N

> <FORMULA>
C14H19N5O5S2

$$$$
