PCZ
  -OEChem-01282220153D

 41 42  0     1  0  0  0  0  0999 V2000
   -0.4400    2.6360   -2.4750 O   0  0  0  0  0  0  0  0  0  0  0  0
    0.5940    2.6270   -1.8510 C   0  0  0  0  0  0  0  0  0  0  0  0
    0.7550    1.7000   -0.6740 C   0  0  2  0  0  0  0  0  0  0  0  0
    1.9290    0.7520   -0.9280 C   0  0  2  0  0  0  0  0  0  0  0  0
    4.4450   -0.3870    0.3290 C   0  0  0  0  0  0  0  0  0  0  0  0
    5.4470   -0.7760    1.1120 C   0  0  0  0  0  0  0  0  0  0  0  0
    4.7230    0.3950   -0.9400 C   0  0  0  0  0  0  0  0  0  0  0  0
    3.0570   -0.7100    0.6840 C   0  0  0  0  0  0  0  0  0  0  0  0
    2.8560   -1.7090    1.7670 C   0  0  0  0  0  0  0  0  0  0  0  0
    3.8070   -2.3080    2.2240 O   0  0  0  0  0  0  0  0  0  0  0  0
    1.6190   -1.9490    2.2400 O   0  0  0  0  0  0  0  0  0  0  0  0
    2.0080   -0.2170    0.1530 N   0  0  0  0  0  0  0  0  0  0  0  0
   -0.4720    0.9210   -0.4940 N   0  0  0  0  0  0  0  0  0  0  0  0
   -1.4980    1.4320    0.2140 C   0  0  0  0  0  0  0  0  0  0  0  0
   -1.4400    2.5720    0.6310 O   0  0  0  0  0  0  0  0  0  0  0  0
   -2.6970    0.6050    0.4850 C   0  0  0  0  0  0  0  0  0  0  0  0
   -3.6390    1.0580    1.2620 N   0  0  0  0  0  0  0  0  0  0  0  0
   -3.5750    2.3850    1.7540 O   0  0  0  0  0  0  0  0  0  0  0  0
   -4.6730    2.7480    2.5930 C   0  0  0  0  0  0  0  0  0  0  0  0
   -2.8240   -0.7360   -0.1260 C   0  0  0  0  0  0  0  0  0  0  0  0
   -3.9440   -1.4760   -0.0170 C   0  0  0  0  0  0  0  0  0  0  0  0
   -3.6910   -2.9930   -0.8770 S   0  0  0  0  0  0  0  0  0  0  0  0
   -2.0650   -2.4770   -1.3140 C   0  0  0  0  0  0  0  0  0  0  0  0
   -1.8390   -1.2960   -0.8300 N   0  0  0  0  0  0  0  0  0  0  0  0
   -1.1660   -3.2180   -2.0640 N   0  0  0  0  0  0  0  0  0  0  0  0
    3.4670    1.7140   -1.0280 S   0  0  0  0  0  0  0  0  0  0  0  0
    0.9490    2.2850    0.2260 H   0  0  0  0  0  0  0  0  0  0  0  0
    1.7720    0.2280   -1.8710 H   0  0  0  0  0  0  0  0  0  0  0  0
    6.4680   -0.6680    0.7760 H   0  0  0  0  0  0  0  0  0  0  0  0
    5.2390   -1.2020    2.0820 H   0  0  0  0  0  0  0  0  0  0  0  0
    5.7210    0.8320   -0.8970 H   0  0  0  0  0  0  0  0  0  0  0  0
    4.6390   -0.2590   -1.8070 H   0  0  0  0  0  0  0  0  0  0  0  0
    1.5390   -2.6070    2.9450 H   0  0  0  0  0  0  0  0  0  0  0  0
   -0.5460    0.0360   -0.8860 H   0  0  0  0  0  0  0  0  0  0  0  0
   -4.5490    3.7780    2.9280 H   0  0  0  0  0  0  0  0  0  0  0  0
   -5.6040    2.6570    2.0330 H   0  0  0  0  0  0  0  0  0  0  0  0
   -4.7040    2.0850    3.4580 H   0  0  0  0  0  0  0  0  0  0  0  0
   -4.8430   -1.1900    0.5090 H   0  0  0  0  0  0  0  0  0  0  0  0
   -1.4170   -4.0950   -2.3940 H   0  0  0  0  0  0  0  0  0  0  0  0
   -0.2870   -2.8590   -2.2600 H   0  0  0  0  0  0  0  0  0  0  0  0
    1.4040    3.2810   -2.1380 H   0  0  0  0  0  0  0  0  0  0  0  0
  1  2  2  0  0  0  0
  2  3  1  0  0  0  0
  2 41  1  0  0  0  0
  3  4  1  0  0  0  0
  3 13  1  0  0  0  0
  3 27  1  0  0  0  0
  4 12  1  0  0  0  0
  4 26  1  0  0  0  0
  4 28  1  0  0  0  0
  5  6  2  0  0  0  0
  5  7  1  0  0  0  0
  5  8  1  0  0  0  0
  6 29  1  0  0  0  0
  6 30  1  0  0  0  0
  7 26  1  0  0  0  0
  7 31  1  0  0  0  0
  7 32  1  0  0  0  0
  8  9  1  0  0  0  0
  8 12  2  0  0  0  0
  9 10  2  0  0  0  0
  9 11  1  0  0  0  0
 11 33  1  0  0  0  0
 13 14  1  0  0  0  0
 13 34  1  0  0  0  0
 14 15  2  0  0  0  0
 14 16  1  0  0  0  0
 16 17  2  0  0  0  0
 16 20  1  0  0  0  0
 17 18  1  0  0  0  0
 18 19  1  0  0  0  0
 19 35  1  0  0  0  0
 19 36  1  0  0  0  0
 19 37  1  0  0  0  0
 20 21  2  0  0  0  0
 20 24  1  0  0  0  0
 21 22  1  0  0  0  0
 21 38  1  0  0  0  0
 22 23  1  0  0  0  0
 23 24  2  0  0  0  0
 23 25  1  0  0  0  0
 25 39  1  0  0  0  0
 25 40  1  0  0  0  0
M  END
> <OPENEYE_ISO_SMILES>
CO/N=C(/c1csc(n1)N)\C(=O)N[C@H](C=O)[C@@H]2N=C(C(=C)CS2)C(=O)O

> <OPENEYE_INCHI>
InChI=1S/C14H15N5O5S2/c1-6-4-25-12(18-9(6)13(22)23)7(3-20)16-11(21)10(19-24-2)8-5-26-14(15)17-8/h3,5,7,12H,1,4H2,2H3,(H2,15,17)(H,16,21)(H,22,23)/b19-10-/t7-,12-/m1/s1

> <OPENEYE_INCHIKEY>
NRYMPLKBKFIWQC-YVCCLBOHSA-N

> <FORMULA>
C14H15N5O5S2

$$$$
