REMARK  9 active torsions:
REMARK  status: ('A' for Active; 'I' for Inactive)
REMARK    1  A    between atoms: C_2  and  CA_3 
REMARK    2  A    between atoms: CA_3  and  C_4 
REMARK    3  A    between atoms: CA_3  and  N_13 
REMARK    4  A    between atoms: CA_8  and  C_9 
REMARK    5  A    between atoms: C_9  and  OXT_11 
REMARK       I    between atoms: N_13  and  C_14 
REMARK    6  A    between atoms: C_14  and  C_16 
REMARK    7  A    between atoms: C_16  and  C_20 
REMARK    8  A    between atoms: N_17  and  O_18 
REMARK    9  A    between atoms: C_23  and  N_25 
ROOT
HETATM    1  N   UNL     1      -0.472   0.921  -0.494  1.00  0.00    -0.342 N 
HETATM    2  C   UNL     1      -1.498   1.432   0.214  1.00  0.00     0.275 C 
HETATM    3  O   UNL     1      -1.440   2.572   0.631  1.00  0.00    -0.266 OA
HETATM    4  H   UNL     1      -0.546   0.036  -0.886  1.00  0.00     0.163 HD
ENDROOT
BRANCH   1   5
HETATM    5  CA  UNL     1       0.755   1.700  -0.674  1.00  0.00     0.181 C 
BRANCH   5   6
HETATM    6  C   UNL     1       0.594   2.627  -1.851  1.00  0.00     0.259 C 
HETATM    7  O   UNL     1      -0.440   2.636  -2.475  1.00  0.00    -0.305 OA
ENDBRANCH   5   6
BRANCH   5   8
HETATM    8  C   UNL     1       1.929   0.752  -0.928  1.00  0.00     0.199 C 
HETATM    9  N   UNL     1       2.008  -0.217   0.153  1.00  0.00    -0.264 NA
HETATM   10  CA  UNL     1       3.057  -0.710   0.684  1.00  0.00     0.132 C 
HETATM   11  C   UNL     1       4.445  -0.387   0.329  1.00  0.00    -0.023 C 
HETATM   12  C   UNL     1       5.447  -0.776   1.112  1.00  0.00     0.022 C 
HETATM   13  C   UNL     1       4.723   0.395  -0.940  1.00  0.00     0.116 C 
HETATM   14  S   UNL     1       3.467   1.714  -1.028  1.00  0.00    -0.135 SA
BRANCH  10  15
HETATM   15  C   UNL     1       2.856  -1.709   1.767  1.00  0.00     0.195 C 
HETATM   16  O   UNL     1       3.807  -2.308   2.224  1.00  0.00    -0.645 OA
BRANCH  15  17
HETATM   17  OXT UNL     1       1.619  -1.949   2.240  1.00  0.00    -0.772 OA
HETATM   18  HXT UNL     1       1.539  -2.607   2.945  1.00  0.00     0.167 HD
ENDBRANCH  15  17
ENDBRANCH  10  15
ENDBRANCH   5   8
ENDBRANCH   1   5
BRANCH   2  19
HETATM   19  C   UNL     1      -2.697   0.605   0.485  1.00  0.00     0.180 C 
HETATM   20  N   UNL     1      -3.639   1.058   1.262  1.00  0.00    -0.126 NA
BRANCH  20  21
HETATM   21  O   UNL     1      -3.575   2.385   1.754  1.00  0.00    -0.261 OA
HETATM   22  C   UNL     1      -4.673   2.748   2.593  1.00  0.00     0.240 C 
ENDBRANCH  20  21
BRANCH  19  23
HETATM   23  C   UNL     1      -2.824  -0.736  -0.126  1.00  0.00     0.102 A 
HETATM   24  C   UNL     1      -3.944  -1.476  -0.017  1.00  0.00     0.087 A 
HETATM   25  S   UNL     1      -3.691  -2.993  -0.877  1.00  0.00    -0.062 SA
HETATM   26  C   UNL     1      -2.065  -2.477  -1.314  1.00  0.00     0.164 A 
HETATM   27  N   UNL     1      -1.839  -1.296  -0.830  1.00  0.00    -0.222 NA
BRANCH  26  28
HETATM   28  N   UNL     1      -1.166  -3.218  -2.064  1.00  0.00    -0.378 N 
HETATM   29  H   UNL     1      -1.417  -4.095  -2.394  1.00  0.00     0.158 HD
HETATM   30  H   UNL     1      -0.287  -2.859  -2.260  1.00  0.00     0.158 HD
ENDBRANCH  26  28
ENDBRANCH  19  23
ENDBRANCH   2  19
TORSDOF 9
