PKV
  -OEChem-07282321083D

 41 42  0     0  0  0  0  0  0999 V2000
   -3.1470   -0.9000   -1.8930 C   0  0  0  0  0  0  0  0  0  0  0  0
    0.2170   -1.6430   -0.8810 C   0  0  0  0  0  0  0  0  0  0  0  0
    5.8510    2.0980   -0.9640 C   0  0  0  0  0  0  0  0  0  0  0  0
    5.8090    0.7780   -1.3750 C   0  0  0  0  0  0  0  0  0  0  0  0
   -5.9840    0.0620    1.4340 O   0  0  0  0  0  0  0  0  0  0  0  0
    5.1510    2.4940    0.1600 C   0  0  0  0  0  0  0  0  0  0  0  0
   -4.8170    2.2410    0.9240 O   0  0  0  0  0  0  0  0  0  0  0  0
    4.4070    1.5720    0.8720 C   0  0  0  0  0  0  0  0  0  0  0  0
   -3.3090   -0.1580    0.5840 O   0  0  0  0  0  0  0  0  0  0  0  0
    4.3650    0.2530    0.4610 C   0  0  0  0  0  0  0  0  0  0  0  0
   -5.1640    0.4080   -0.9280 O   0  0  0  0  0  0  0  0  0  0  0  0
   -5.8030    1.0890    0.3830 P   0  0  0  0  0  0  0  0  0  0  0  0
   -7.2300    1.7350    0.0120 O   0  0  0  0  0  0  0  0  0  0  0  0
   -3.8970   -0.1940   -0.7080 B   0  0  0  0  0  0  0  0  0  0  0  0
   -1.8710   -1.4370   -1.4120 N   0  0  0  0  0  0  0  0  0  0  0  0
   -1.6840   -2.6140   -0.9260 N   0  0  0  0  0  0  0  0  0  0  0  0
   -0.4490   -2.7680   -0.6000 N   0  0  0  0  0  0  0  0  0  0  0  0
   -0.6880   -0.7810   -1.4030 C   0  0  0  0  0  0  0  0  0  0  0  0
    1.6840   -1.3820   -0.6550 C   0  0  0  0  0  0  0  0  0  0  0  0
    1.8930   -0.9300    0.7220 N   0  0  0  0  0  0  0  0  0  0  0  0
    3.4170   -0.9230    1.3690 S   0  0  0  0  0  0  0  0  0  0  0  0
    3.9790   -2.1970    1.0850 O   0  0  0  0  0  0  0  0  0  0  0  0
    3.2920   -0.4060    2.6870 O   0  0  0  0  0  0  0  0  0  0  0  0
    5.0660   -0.1440   -0.6620 C   0  0  0  0  0  0  0  0  0  0  0  0
    6.6670    3.1020   -1.7360 C   0  0  0  0  0  0  0  0  0  0  0  0
   -3.7610   -1.7130   -2.2790 H   0  0  0  0  0  0  0  0  0  0  0  0
   -2.9600   -0.1770   -2.6870 H   0  0  0  0  0  0  0  0  0  0  0  0
    6.3570    0.4680   -2.2520 H   0  0  0  0  0  0  0  0  0  0  0  0
    5.1840    3.5250    0.4810 H   0  0  0  0  0  0  0  0  0  0  0  0
   -4.6520    2.9490    0.2860 H   0  0  0  0  0  0  0  0  0  0  0  0
    3.8600    1.8810    1.7510 H   0  0  0  0  0  0  0  0  0  0  0  0
   -2.4470   -0.5930    0.6360 H   0  0  0  0  0  0  0  0  0  0  0  0
   -7.6740    2.1630    0.7570 H   0  0  0  0  0  0  0  0  0  0  0  0
   -0.5020    0.2270   -1.7440 H   0  0  0  0  0  0  0  0  0  0  0  0
    2.2460   -2.3000   -0.8250 H   0  0  0  0  0  0  0  0  0  0  0  0
    2.0270   -0.6130   -1.3470 H   0  0  0  0  0  0  0  0  0  0  0  0
    1.1390   -0.6330    1.2550 H   0  0  0  0  0  0  0  0  0  0  0  0
    5.0320   -1.1750   -0.9840 H   0  0  0  0  0  0  0  0  0  0  0  0
    6.0480    3.5530   -2.5120 H   0  0  0  0  0  0  0  0  0  0  0  0
    7.0240    3.8780   -1.0590 H   0  0  0  0  0  0  0  0  0  0  0  0
    7.5180    2.6010   -2.1970 H   0  0  0  0  0  0  0  0  0  0  0  0
  5 12  2  0  0  0  0
  6  8  2  0  0  0  0
  3  6  1  0  0  0  0
 12 13  1  0  0  0  0
  8 10  1  0  0  0  0
 21 22  2  0  0  0  0
  3 25  1  0  0  0  0
  7 12  1  0  0  0  0
 11 12  1  0  0  0  0
  3  4  2  0  0  0  0
 10 21  1  0  0  0  0
 10 24  2  0  0  0  0
 19 20  1  0  0  0  0
  2 19  1  0  0  0  0
 20 21  1  0  0  0  0
 21 23  2  0  0  0  0
 11 14  1  0  0  0  0
  4 24  1  0  0  0  0
  2 18  2  0  0  0  0
 15 18  1  0  0  0  0
  2 17  1  0  0  0  0
  9 14  1  0  0  0  0
  1 14  1  0  0  0  0
  1 15  1  0  0  0  0
 15 16  1  0  0  0  0
 16 17  2  0  0  0  0
  1 26  1  0  0  0  0
  1 27  1  0  0  0  0
  4 28  1  0  0  0  0
  6 29  1  0  0  0  0
  7 30  1  0  0  0  0
  8 31  1  0  0  0  0
  9 32  1  0  0  0  0
 13 33  1  0  0  0  0
 18 34  1  0  0  0  0
 19 35  1  0  0  0  0
 19 36  1  0  0  0  0
 20 37  1  0  0  0  0
 24 38  1  0  0  0  0
 25 39  1  0  0  0  0
 25 40  1  0  0  0  0
 25 41  1  0  0  0  0
M  END
> <OPENEYE_ISO_SMILES>
B(Cn1cc(nn1)CNS(=O)(=O)c2ccc(cc2)C)(O)OP(=O)(O)O

> <OPENEYE_INCHI>
InChI=1S/C11H16BN4O7PS/c1-9-2-4-11(5-3-9)25(21,22)13-6-10-7-16(15-14-10)8-12(17)23-24(18,19)20/h2-5,7,13,17H,6,8H2,1H3,(H2,18,19,20)

> <OPENEYE_INCHIKEY>
YPLPGLUGELKLDN-UHFFFAOYSA-N

> <FORMULA>
C11H16BN4O7PS

$$$$
