REMARK  11 active torsions:
REMARK  status: ('A' for Active; 'I' for Inactive)
REMARK    1  A    between atoms: C_1  and  B_14 
REMARK    2  A    between atoms: C_1  and  N_15 
REMARK    3  A    between atoms: C_2  and  C_19 
REMARK    4  A    between atoms: O_7  and  P_12 
REMARK    5  A    between atoms: O_9  and  B_14 
REMARK    6  A    between atoms: C_10  and  S_21 
REMARK    7  A    between atoms: O_11  and  P_12 
REMARK    8  A    between atoms: O_11  and  B_14 
REMARK    9  A    between atoms: P_12  and  O_13 
REMARK   10  A    between atoms: C_19  and  N_20 
REMARK   11  A    between atoms: N_20  and  S_21 
ROOT
HETATM    1  C   UNL     1       0.217  -1.643  -0.881  1.00  0.00     0.093 A 
HETATM    2  N   UNL     1      -1.871  -1.437  -1.412  1.00  0.00    -0.264 N 
HETATM    3  N   UNL     1      -1.684  -2.614  -0.926  1.00  0.00    -0.067 NA
HETATM    4  N   UNL     1      -0.449  -2.768  -0.600  1.00  0.00    -0.134 NA
HETATM    5  C   UNL     1      -0.688  -0.781  -1.403  1.00  0.00     0.143 A 
ENDROOT
BRANCH   1   6
HETATM    6  C   UNL     1       1.684  -1.382  -0.655  1.00  0.00     0.194 C 
BRANCH   6   7
HETATM    7  N   UNL     1       1.893  -0.930   0.722  1.00  0.00    -0.310 N 
HETATM    8  H   UNL     1       1.139  -0.633   1.255  1.00  0.00     0.172 HD
BRANCH   7   9
HETATM    9  S   UNL     1       3.417  -0.923   1.369  1.00  0.00     0.259 S 
HETATM   10  O   UNL     1       3.979  -2.197   1.085  1.00  0.00    -0.201 OA
HETATM   11  O   UNL     1       3.292  -0.406   2.687  1.00  0.00    -0.201 OA
BRANCH   9  12
HETATM   12  C   UNL     1       4.365   0.253   0.461  1.00  0.00     0.079 A 
HETATM   13  C   UNL     1       4.407   1.572   0.872  1.00  0.00     0.026 A 
HETATM   14  C   UNL     1       5.151   2.494   0.160  1.00  0.00     0.008 A 
HETATM   15  C   UNL     1       5.851   2.098  -0.964  1.00  0.00    -0.062 A 
HETATM   16  C   UNL     1       6.667   3.102  -1.736  1.00  0.00     0.048 C 
HETATM   17  C   UNL     1       5.809   0.778  -1.375  1.00  0.00     0.008 A 
HETATM   18  C   UNL     1       5.066  -0.144  -0.662  1.00  0.00     0.026 A 
ENDBRANCH   9  12
ENDBRANCH   7   9
ENDBRANCH   6   7
ENDBRANCH   1   6
BRANCH   2  19
HETATM   19  C   UNL     1      -3.147  -0.900  -1.893  1.00  0.00     0.173 C 
BRANCH  19  20
HETATM   20  B   UNL     1      -3.897  -0.194  -0.708  1.00  0.00     0.522 B 
BRANCH  20  21
HETATM   21  O   UNL     1      -3.309  -0.158   0.584  1.00  0.00    -0.436 OA
HETATM   22  H   UNL     1      -2.447  -0.593   0.636  1.00  0.00     0.184 HD
ENDBRANCH  20  21
BRANCH  20  23
HETATM   23  O   UNL     1      -5.164   0.408  -0.928  1.00  0.00    -0.334 OA
BRANCH  23  24
HETATM   24  P   UNL     1      -5.803   1.089   0.383  1.00  0.00     0.375 P 
HETATM   25  O   UNL     1      -5.984   0.062   1.434  1.00  0.00    -0.632 OA
BRANCH  24  26
HETATM   26  O   UNL     1      -4.817   2.241   0.924  1.00  0.00    -0.308 OA
HETATM   27  H   UNL     1      -4.652   2.949   0.286  1.00  0.00     0.222 HD
ENDBRANCH  24  26
BRANCH  24  28
HETATM   28  O   UNL     1      -7.230   1.735   0.012  1.00  0.00    -0.308 OA
HETATM   29  H   UNL     1      -7.674   2.163   0.757  1.00  0.00     0.222 HD
ENDBRANCH  24  28
ENDBRANCH  23  24
ENDBRANCH  20  23
ENDBRANCH  19  20
ENDBRANCH   2  19
TORSDOF 11
