PKY
  -OEChem-07282321083D

 34 35  0     0  0  0  0  0  0999 V2000
   -5.9240    1.6740   -1.2210 O   0  0  0  0  0  0  0  0  0  0  0  0
   -6.0690    0.5010   -0.9360 C   0  0  0  0  0  0  0  0  0  0  0  0
   -7.2430   -0.1120   -1.1840 N   0  0  0  0  0  0  0  0  0  0  0  0
   -4.9550   -0.2540   -0.3230 C   0  0  0  0  0  0  0  0  0  0  0  0
   -3.7390    0.3790   -0.0660 C   0  0  0  0  0  0  0  0  0  0  0  0
   -5.1190   -1.6000    0.0060 C   0  0  0  0  0  0  0  0  0  0  0  0
   -4.0790   -2.3050    0.5780 C   0  0  0  0  0  0  0  0  0  0  0  0
   -2.8720   -1.6840    0.8300 C   0  0  0  0  0  0  0  0  0  0  0  0
   -2.6970   -0.3380    0.5110 C   0  0  0  0  0  0  0  0  0  0  0  0
   -1.3980    0.3280    0.7830 C   0  0  0  0  0  0  0  0  0  0  0  0
   -1.1090    1.6310    0.6200 N   0  0  0  0  0  0  0  0  0  0  0  0
    0.1160    1.8290    0.9590 N   0  0  0  0  0  0  0  0  0  0  0  0
   -0.2590   -0.2590    1.2540 C   0  0  0  0  0  0  0  0  0  0  0  0
    0.6610    0.7280    1.3400 N   0  0  0  0  0  0  0  0  0  0  0  0
    2.0430    0.5720    1.8000 C   0  0  0  0  0  0  0  0  0  0  0  0
    2.9670    0.2360    0.5760 B   0  0  0  0  0  0  0  0  0  0  0  0
    2.4100    0.1310   -0.7260 O   0  0  0  0  0  0  0  0  0  0  0  0
    4.3600    0.0380    0.7700 O   0  0  0  0  0  0  0  0  0  0  0  0
    5.1690   -0.2980   -0.5810 P   0  0  0  0  0  0  0  0  0  0  0  0
    6.7280   -0.5010   -0.2360 O   0  0  0  0  0  0  0  0  0  0  0  0
    4.6310   -1.5390   -1.1820 O   0  0  0  0  0  0  0  0  0  0  0  0
    5.0030    0.9190   -1.6220 O   0  0  0  0  0  0  0  0  0  0  0  0
   -7.9720    0.3820   -1.5890 H   0  0  0  0  0  0  0  0  0  0  0  0
   -7.3580   -1.0480   -0.9560 H   0  0  0  0  0  0  0  0  0  0  0  0
   -3.6080    1.4220   -0.3140 H   0  0  0  0  0  0  0  0  0  0  0  0
   -6.0610   -2.0920   -0.1890 H   0  0  0  0  0  0  0  0  0  0  0  0
   -4.2110   -3.3470    0.8310 H   0  0  0  0  0  0  0  0  0  0  0  0
   -2.0630   -2.2400    1.2790 H   0  0  0  0  0  0  0  0  0  0  0  0
   -0.1190   -1.3010    1.5000 H   0  0  0  0  0  0  0  0  0  0  0  0
    2.3790    1.4980    2.2650 H   0  0  0  0  0  0  0  0  0  0  0  0
    2.0950   -0.2390    2.5270 H   0  0  0  0  0  0  0  0  0  0  0  0
    3.0560   -0.0790   -1.4150 H   0  0  0  0  0  0  0  0  0  0  0  0
    7.2770   -0.7070   -1.0050 H   0  0  0  0  0  0  0  0  0  0  0  0
    5.3350    1.7650   -1.2930 H   0  0  0  0  0  0  0  0  0  0  0  0
 19 21  2  0  0  0  0
 19 20  1  0  0  0  0
 19 22  1  0  0  0  0
 18 19  1  0  0  0  0
 16 18  1  0  0  0  0
 16 17  1  0  0  0  0
 15 16  1  0  0  0  0
 14 15  1  0  0  0  0
 13 14  1  0  0  0  0
 10 13  2  0  0  0  0
 12 14  1  0  0  0  0
  7  8  2  0  0  0  0
  8  9  1  0  0  0  0
  6  7  1  0  0  0  0
  9 10  1  0  0  0  0
 10 11  1  0  0  0  0
  5  9  2  0  0  0  0
 11 12  2  0  0  0  0
  4  6  2  0  0  0  0
  4  5  1  0  0  0  0
  2  4  1  0  0  0  0
  2  3  1  0  0  0  0
  1  2  2  0  0  0  0
  3 23  1  0  0  0  0
  3 24  1  0  0  0  0
  5 25  1  0  0  0  0
  6 26  1  0  0  0  0
  7 27  1  0  0  0  0
  8 28  1  0  0  0  0
 13 29  1  0  0  0  0
 15 30  1  0  0  0  0
 15 31  1  0  0  0  0
 17 32  1  0  0  0  0
 20 33  1  0  0  0  0
 22 34  1  0  0  0  0
M  END
> <OPENEYE_ISO_SMILES>
B(Cn1cc(nn1)c2cccc(c2)C(=O)N)(O)OP(=O)(O)O

> <OPENEYE_INCHI>
InChI=1S/C10H12BN4O6P/c12-10(16)8-3-1-2-7(4-8)9-5-15(14-13-9)6-11(17)21-22(18,19)20/h1-5,17H,6H2,(H2,12,16)(H2,18,19,20)

> <OPENEYE_INCHIKEY>
FKHVACRDBKDASW-UHFFFAOYSA-N

> <FORMULA>
C10H12BN4O6P

$$$$
