REMARK  9 active torsions:
REMARK  status: ('A' for Active; 'I' for Inactive)
REMARK    1  A    between atoms: C_2  and  C_4 
REMARK       I    between atoms: C_2  and  N_3 
REMARK    2  A    between atoms: C_9  and  C_10 
REMARK    3  A    between atoms: N_14  and  C_15 
REMARK    4  A    between atoms: C_15  and  B_16 
REMARK    5  A    between atoms: B_16  and  O_18 
REMARK    6  A    between atoms: B_16  and  O_17 
REMARK    7  A    between atoms: O_18  and  P_19 
REMARK    8  A    between atoms: P_19  and  O_20 
REMARK    9  A    between atoms: P_19  and  O_22 
ROOT
HETATM    1  C   UNL     1      -1.398   0.328   0.783  1.00  0.00     0.108 A 
HETATM    2  N   UNL     1      -1.109   1.631   0.620  1.00  0.00    -0.130 NA
HETATM    3  N   UNL     1       0.116   1.829   0.959  1.00  0.00    -0.067 NA
HETATM    4  C   UNL     1      -0.259  -0.259   1.254  1.00  0.00     0.147 A 
HETATM    5  N   UNL     1       0.661   0.728   1.340  1.00  0.00    -0.264 N 
ENDROOT
BRANCH   1   6
HETATM    6  C   UNL     1      -2.697  -0.338   0.511  1.00  0.00    -0.003 A 
HETATM    7  C   UNL     1      -3.739   0.379  -0.066  1.00  0.00     0.031 A 
HETATM    8  C   UNL     1      -4.955  -0.254  -0.323  1.00  0.00     0.032 A 
HETATM    9  C   UNL     1      -5.119  -1.600   0.006  1.00  0.00     0.017 A 
HETATM   10  C   UNL     1      -4.079  -2.305   0.578  1.00  0.00     0.002 A 
HETATM   11  C   UNL     1      -2.872  -1.684   0.830  1.00  0.00     0.014 A 
BRANCH   8  12
HETATM   12  C   UNL     1      -6.069   0.501  -0.936  1.00  0.00     0.249 C 
HETATM   13  O   UNL     1      -5.924   1.674  -1.221  1.00  0.00    -0.268 OA
HETATM   14  N   UNL     1      -7.243  -0.112  -1.184  1.00  0.00    -0.366 N 
HETATM   15  H   UNL     1      -7.972   0.382  -1.589  1.00  0.00     0.159 HD
HETATM   16  H   UNL     1      -7.358  -1.048  -0.956  1.00  0.00     0.159 HD
ENDBRANCH   8  12
ENDBRANCH   1   6
BRANCH   5  17
HETATM   17  C   UNL     1       2.043   0.572   1.800  1.00  0.00     0.173 C 
BRANCH  17  18
HETATM   18  B   UNL     1       2.967   0.236   0.576  1.00  0.00     0.522 B 
BRANCH  18  19
HETATM   19  O   UNL     1       4.360   0.038   0.770  1.00  0.00    -0.334 OA
BRANCH  19  20
HETATM   20  P   UNL     1       5.169  -0.298  -0.581  1.00  0.00     0.375 P 
HETATM   21  O   UNL     1       4.631  -1.539  -1.182  1.00  0.00    -0.632 OA
BRANCH  20  22
HETATM   22  O   UNL     1       6.728  -0.501  -0.236  1.00  0.00    -0.308 OA
HETATM   23  H   UNL     1       7.277  -0.707  -1.005  1.00  0.00     0.222 HD
ENDBRANCH  20  22
BRANCH  20  24
HETATM   24  O   UNL     1       5.003   0.919  -1.622  1.00  0.00    -0.308 OA
HETATM   25  H   UNL     1       5.335   1.765  -1.293  1.00  0.00     0.222 HD
ENDBRANCH  20  24
ENDBRANCH  19  20
ENDBRANCH  18  19
BRANCH  18  26
HETATM   26  O   UNL     1       2.410   0.131  -0.726  1.00  0.00    -0.436 OA
HETATM   27  H   UNL     1       3.056  -0.079  -1.415  1.00  0.00     0.184 HD
ENDBRANCH  18  26
ENDBRANCH  17  18
ENDBRANCH   5  17
TORSDOF 9
