PNM
  -OEChem-07282321083D

 43 44  0     1  0  0  0  0  0999 V2000
   -3.1270    0.3100   -0.3850 O   0  0  0  0  0  0  0  0  0  0  0  0
   -2.6520   -0.6170    0.2240 C   0  0  0  0  0  0  0  0  0  0  0  0
   -0.7350    0.6150    2.2100 N   0  0  0  0  0  0  0  0  0  0  0  0
    0.1890    0.8390    3.3250 C   0  0  1  0  0  0  0  0  0  0  0  0
   -0.4940    0.4380    4.6060 C   0  0  0  0  0  0  0  0  0  0  0  0
   -0.1580    1.0330    5.7610 O   0  0  0  0  0  0  0  0  0  0  0  0
   -1.3460   -0.4180    4.5930 O   0  0  0  0  0  0  0  0  0  0  0  0
    1.5110    0.0480    3.2070 C   0  0  0  0  0  0  0  0  0  0  0  0
    1.7360   -0.8280    4.4410 C   0  0  0  0  0  0  0  0  0  0  0  0
    2.6960    0.9900    2.9850 C   0  0  0  0  0  0  0  0  0  0  0  0
    1.2000   -0.9850    1.7120 S   0  0  0  0  0  0  0  0  0  0  0  0
   -0.6340   -0.7670    1.6570 C   0  0  2  0  0  0  0  0  0  0  0  0
   -1.1610   -0.8350    0.2220 C   0  0  2  0  0  0  0  0  0  0  0  0
   -0.5160    0.2040   -0.5840 N   0  0  0  0  0  0  0  0  0  0  0  0
   -0.3190    0.0080   -1.9030 C   0  0  0  0  0  0  0  0  0  0  0  0
   -0.6760   -1.0280   -2.4220 O   0  0  0  0  0  0  0  0  0  0  0  0
    0.3420    1.0770   -2.7320 C   0  0  0  0  0  0  0  0  0  0  0  0
    0.4420    0.6140   -4.1630 C   0  0  0  0  0  0  0  0  0  0  0  0
   -0.5810    0.8850   -5.0500 C   0  0  0  0  0  0  0  0  0  0  0  0
   -0.4900    0.4590   -6.3620 C   0  0  0  0  0  0  0  0  0  0  0  0
    0.6260   -0.2360   -6.7870 C   0  0  0  0  0  0  0  0  0  0  0  0
    1.6500   -0.5060   -5.9000 C   0  0  0  0  0  0  0  0  0  0  0  0
    1.5610   -0.0770   -4.5890 C   0  0  0  0  0  0  0  0  0  0  0  0
   -3.2950   -1.2910    0.7700 H   0  0  0  0  0  0  0  0  0  0  0  0
   -1.6670    0.7100    2.5840 H   0  0  0  0  0  0  0  0  0  0  0  0
    0.4230    1.9030    3.3740 H   0  0  0  0  0  0  0  0  0  0  0  0
   -0.5970    0.7760    6.5830 H   0  0  0  0  0  0  0  0  0  0  0  0
    2.6450   -1.4150    4.3090 H   0  0  0  0  0  0  0  0  0  0  0  0
    1.8380   -0.1950    5.3230 H   0  0  0  0  0  0  0  0  0  0  0  0
    0.8860   -1.4970    4.5710 H   0  0  0  0  0  0  0  0  0  0  0  0
    3.6050    0.4040    2.8510 H   0  0  0  0  0  0  0  0  0  0  0  0
    2.5180    1.5930    2.0950 H   0  0  0  0  0  0  0  0  0  0  0  0
    2.8080    1.6430    3.8500 H   0  0  0  0  0  0  0  0  0  0  0  0
   -1.1400   -1.4900    2.2970 H   0  0  0  0  0  0  0  0  0  0  0  0
   -0.9370   -1.8140   -0.2010 H   0  0  0  0  0  0  0  0  0  0  0  0
   -0.2310    1.0330   -0.1690 H   0  0  0  0  0  0  0  0  0  0  0  0
   -0.2490    1.9910   -2.6870 H   0  0  0  0  0  0  0  0  0  0  0  0
    1.3420    1.2720   -2.3430 H   0  0  0  0  0  0  0  0  0  0  0  0
   -1.4530    1.4290   -4.7190 H   0  0  0  0  0  0  0  0  0  0  0  0
   -1.2900    0.6700   -7.0560 H   0  0  0  0  0  0  0  0  0  0  0  0
    0.6970   -0.5690   -7.8120 H   0  0  0  0  0  0  0  0  0  0  0  0
    2.5220   -1.0510   -6.2310 H   0  0  0  0  0  0  0  0  0  0  0  0
    2.3620   -0.2880   -3.8950 H   0  0  0  0  0  0  0  0  0  0  0  0
  1  2  2  0  0  0  0
  2 13  1  0  0  0  0
  2 24  1  0  0  0  0
  3  4  1  0  0  0  0
  3 12  1  0  0  0  0
  3 25  1  0  0  0  0
  4  5  1  0  0  0  0
  4  8  1  0  0  0  0
  4 26  1  0  0  0  0
  5  6  1  0  0  0  0
  5  7  2  0  0  0  0
  6 27  1  0  0  0  0
  8  9  1  0  0  0  0
  8 10  1  0  0  0  0
  8 11  1  0  0  0  0
  9 28  1  0  0  0  0
  9 29  1  0  0  0  0
  9 30  1  0  0  0  0
 10 31  1  0  0  0  0
 10 32  1  0  0  0  0
 10 33  1  0  0  0  0
 11 12  1  0  0  0  0
 12 13  1  0  0  0  0
 12 34  1  0  0  0  0
 13 14  1  0  0  0  0
 13 35  1  0  0  0  0
 14 15  1  0  0  0  0
 14 36  1  0  0  0  0
 15 16  2  0  0  0  0
 15 17  1  0  0  0  0
 17 18  1  0  0  0  0
 17 37  1  0  0  0  0
 17 38  1  0  0  0  0
 18 19  2  0  0  0  0
 18 23  1  0  0  0  0
 19 20  1  0  0  0  0
 19 39  1  0  0  0  0
 20 21  2  0  0  0  0
 20 40  1  0  0  0  0
 21 22  1  0  0  0  0
 21 41  1  0  0  0  0
 22 23  2  0  0  0  0
 22 42  1  0  0  0  0
 23 43  1  0  0  0  0
M  END
> <OPENEYE_ISO_SMILES>
CC1([C@@H](N[C@H](S1)[C@@H](C=O)NC(=O)Cc2ccccc2)C(=O)O)C

> <OPENEYE_INCHI>
InChI=1S/C16H20N2O4S/c1-16(2)13(15(21)22)18-14(23-16)11(9-19)17-12(20)8-10-6-4-3-5-7-10/h3-7,9,11,13-14,18H,8H2,1-2H3,(H,17,20)(H,21,22)/t11-,13+,14-/m1/s1

> <OPENEYE_INCHIKEY>
OGFZUTGOGYUTKZ-KWCYVHTRSA-N

> <FORMULA>
C16H20N2O4S

$$$$
