REMARK  10 active torsions:
REMARK  status: ('A' for Active; 'I' for Inactive)
REMARK    1  A    between atoms: C_5  and  C_6 
REMARK    2  A    between atoms: C_5  and  O_22 
REMARK    3  A    between atoms: C_6  and  C_7 
REMARK    4  A    between atoms: CA_8  and  C_9 
REMARK    5  A    between atoms: CA_8  and  C_10 
REMARK    6  A    between atoms: CA_8  and  N_13 
REMARK    7  A    between atoms: C_9  and  OXT_17 
REMARK    8  A    between atoms: C_10  and  C_11 
REMARK    9  A    between atoms: C_10  and  S_20 
REMARK   10  A    between atoms: C_11  and  N_14 
ROOT
HETATM    1  CA  UNL     1       0.695  -0.758  -0.096  1.00  0.00     0.230 C 
ENDROOT
BRANCH   1   2
HETATM    2  C   UNL     1       0.568  -1.656   1.108  1.00  0.00     0.167 C 
HETATM    3  O   UNL     1       0.845  -1.236   2.206  1.00  0.00    -0.648 OA
BRANCH   2   4
HETATM    4  OXT UNL     1       0.147  -2.922   0.960  1.00  0.00    -0.775 OA
HETATM    5  HXT UNL     1       0.082  -3.459   1.761  1.00  0.00     0.167 HD
ENDBRANCH   2   4
ENDBRANCH   1   2
BRANCH   1   6
HETATM    6  C   UNL     1      -0.654  -0.096  -0.383  1.00  0.00     0.124 C 
HETATM    7  C   UNL     1      -0.502   0.890  -1.543  1.00  0.00     0.038 C 
BRANCH   6   8
HETATM    8  C   UNL     1      -1.131   0.652   0.863  1.00  0.00     0.181 C 
BRANCH   8   9
HETATM    9  N   UNL     1      -2.402   1.320   0.575  1.00  0.00    -0.260 N 
HETATM   10  N   UNL     1      -2.617   2.152  -0.383  1.00  0.00    -0.067 NA
HETATM   11  N   UNL     1      -3.838   2.557  -0.355  1.00  0.00    -0.143 NA
HETATM   12  C   UNL     1      -4.465   1.967   0.669  1.00  0.00     0.161 A 
HETATM   13  C   UNL     1      -3.551   1.175   1.276  1.00  0.00     0.135 A 
ENDBRANCH   8   9
ENDBRANCH   6   8
BRANCH   6  14
HETATM   14  S   UNL     1      -1.867  -1.365  -0.826  1.00  0.00     0.264 S 
HETATM   15  O   UNL     1      -3.114  -1.540   0.007  1.00  0.00    -0.211 OA
HETATM   16  O   UNL     1      -1.631  -2.249  -2.027  1.00  0.00    -0.211 OA
ENDBRANCH   6  14
ENDBRANCH   1   6
BRANCH   1  17
HETATM   17  N   UNL     1       1.699   0.275   0.169  1.00  0.00    -0.287 NA
HETATM   18  C   UNL     1       2.736   0.365  -0.575  1.00  0.00     0.095 C 
BRANCH  18  19
HETATM   19  C   UNL     1       3.769   1.428  -0.302  1.00  0.00     0.156 C 
BRANCH  19  20
HETATM   20  C   UNL     1       5.122   0.784  -0.140  1.00  0.00     0.144 C 
HETATM   21  O   UNL     1       5.236  -0.415  -0.237  1.00  0.00    -0.650 OA
BRANCH  20  22
HETATM   22  O   UNL     1       6.201   1.543   0.111  1.00  0.00    -0.776 OA
HETATM   23  H   UNL     1       7.047   1.084   0.206  1.00  0.00     0.167 HD
ENDBRANCH  20  22
ENDBRANCH  19  20
ENDBRANCH  18  19
ENDBRANCH   1  17
TORSDOF 10
