QBZ
  -OEChem-07282321083D

 34 34  0     1  0  0  0  0  0999 V2000
   -0.5020    0.8900   -1.5430 C   0  0  0  0  0  0  0  0  0  0  0  0
   -4.4650    1.9670    0.6690 C   0  0  0  0  0  0  0  0  0  0  0  0
   -3.8380    2.5570   -0.3550 N   0  0  0  0  0  0  0  0  0  0  0  0
   -2.6170    2.1520   -0.3830 N   0  0  0  0  0  0  0  0  0  0  0  0
    5.1220    0.7840   -0.1400 C   0  0  0  0  0  0  0  0  0  0  0  0
    3.7690    1.4280   -0.3020 C   0  0  0  0  0  0  0  0  0  0  0  0
    2.7360    0.3650   -0.5750 C   0  0  0  0  0  0  0  0  0  0  0  0
    0.6950   -0.7580   -0.0960 C   0  0  1  0  0  0  0  0  0  0  0  0
    0.5680   -1.6560    1.1080 C   0  0  0  0  0  0  0  0  0  0  0  0
   -0.6540   -0.0960   -0.3830 C   0  0  1  0  0  0  0  0  0  0  0  0
   -1.1310    0.6520    0.8630 C   0  0  0  0  0  0  0  0  0  0  0  0
   -3.5510    1.1750    1.2760 C   0  0  0  0  0  0  0  0  0  0  0  0
    1.6990    0.2750    0.1690 N   0  0  0  0  0  0  0  0  0  0  0  0
   -2.4020    1.3200    0.5750 N   0  0  0  0  0  0  0  0  0  0  0  0
    5.2360   -0.4150   -0.2370 O   0  0  0  0  0  0  0  0  0  0  0  0
    0.8450   -1.2360    2.2060 O   0  0  0  0  0  0  0  0  0  0  0  0
    0.1470   -2.9220    0.9600 O   0  0  0  0  0  0  0  0  0  0  0  0
   -3.1140   -1.5400    0.0070 O   0  0  0  0  0  0  0  0  0  0  0  0
   -1.6310   -2.2490   -2.0270 O   0  0  0  0  0  0  0  0  0  0  0  0
   -1.8670   -1.3650   -0.8260 S   0  5  0  0  0  0  0  0  0  0  0  0
   -0.1620    0.3570   -2.4310 H   0  0  0  0  0  0  0  0  0  0  0  0
   -1.4630    1.3610   -1.7480 H   0  0  0  0  0  0  0  0  0  0  0  0
    0.2290    1.6540   -1.2770 H   0  0  0  0  0  0  0  0  0  0  0  0
   -5.4970    2.1000    0.9570 H   0  0  0  0  0  0  0  0  0  0  0  0
    3.5090    1.9620    0.6120 H   0  0  0  0  0  0  0  0  0  0  0  0
    3.7980    2.1290   -1.1360 H   0  0  0  0  0  0  0  0  0  0  0  0
    2.8710   -0.3200   -1.3980 H   0  0  0  0  0  0  0  0  0  0  0  0
    1.0010   -1.3490   -0.9590 H   0  0  0  0  0  0  0  0  0  0  0  0
   -1.2690   -0.0550    1.6810 H   0  0  0  0  0  0  0  0  0  0  0  0
   -0.3860    1.3960    1.1480 H   0  0  0  0  0  0  0  0  0  0  0  0
   -3.7080    0.5490    2.1410 H   0  0  0  0  0  0  0  0  0  0  0  0
    0.0820   -3.4590    1.7610 H   0  0  0  0  0  0  0  0  0  0  0  0
    6.2010    1.5430    0.1110 O   0  0  0  0  0  0  0  0  0  0  0  0
    7.0470    1.0840    0.2060 H   0  0  0  0  0  0  0  0  0  0  0  0
  9 16  2  0  0  0  0
  9 17  1  0  0  0  0
 12 14  1  0  0  0  0
  2 12  2  0  0  0  0
  8  9  1  0  0  0  0
 11 14  1  0  0  0  0
 10 11  1  0  0  0  0
  4 14  1  0  0  0  0
  2  3  1  0  0  0  0
  1 10  1  0  0  0  0
  8 10  1  0  0  0  0
 10 20  1  0  0  0  0
  8 13  1  0  0  0  0
  3  4  2  0  0  0  0
  7 13  2  0  0  0  0
 19 20  2  0  0  0  0
  6  7  1  0  0  0  0
 18 20  2  0  0  0  0
  5 15  2  0  0  0  0
  5  6  1  0  0  0  0
  1 21  1  0  0  0  0
  1 22  1  0  0  0  0
  1 23  1  0  0  0  0
  2 24  1  0  0  0  0
  6 25  1  0  0  0  0
  6 26  1  0  0  0  0
  7 27  1  0  0  0  0
  8 28  1  0  0  0  0
 11 29  1  0  0  0  0
 11 30  1  0  0  0  0
 12 31  1  0  0  0  0
 17 32  1  0  0  0  0
  5 33  1  0  0  0  0
 33 34  1  0  0  0  0
M  CHG  1  20  -1
M  END
> <OPENEYE_ISO_SMILES>
C[C@](Cn1ccnn1)([C@H](C(=O)O)/N=C/CC(=O)O)[S-](=O)=O

> <OPENEYE_INCHI>
InChI=1S/C10H13N4O6S/c1-10(21(19)20,6-14-5-4-12-13-14)8(9(17)18)11-3-2-7(15)16/h3-5,8H,2,6H2,1H3,(H,15,16)(H,17,18)/q-1/b11-3+/t8-,10-/m0/s1

> <OPENEYE_INCHIKEY>
YNFLCWAICZLYCW-QWLAWDEZSA-N

> <FORMULA>
C10H13N4O6S-

$$$$
