REMARK  6 active torsions:
REMARK  status: ('A' for Active; 'I' for Inactive)
REMARK    1  A    between atoms: C_4  and  C_11 
REMARK    2  A    between atoms: C_4  and  O_9 
REMARK    3  A    between atoms: C_7  and  B_8 
REMARK    4  A    between atoms: B_8  and  O_10 
REMARK    5  A    between atoms: B_8  and  O_9 
REMARK    6  A    between atoms: C_11  and  O_12 
ROOT
HETATM    1  B   UNL     1       0.290  -0.791  -0.046  1.00  0.00     0.531 B 
ENDROOT
BRANCH   1   2
HETATM    2  C   UNL     1      -1.161  -0.191  -0.014  1.00  0.00    -0.032 A 
HETATM    3  C   UNL     1      -1.354   1.181  -0.170  1.00  0.00     0.001 A 
HETATM    4  C   UNL     1      -2.631   1.701  -0.154  1.00  0.00    -0.000 A 
HETATM    5  C   UNL     1      -3.720   0.865   0.024  1.00  0.00     0.000 A 
HETATM    6  C   UNL     1      -3.533  -0.496   0.186  1.00  0.00    -0.000 A 
HETATM    7  C   UNL     1      -2.261  -1.029   0.159  1.00  0.00     0.001 A 
ENDBRANCH   1   2
BRANCH   1   8
HETATM    8  O   UNL     1       0.483  -2.190   0.102  1.00  0.00    -0.433 OA
HETATM    9  H   UNL     1      -0.337  -2.690   0.216  1.00  0.00     0.185 HD
ENDBRANCH   1   8
BRANCH   1  10
HETATM   10  O   UNL     1       1.409   0.065  -0.222  1.00  0.00    -0.421 OA
BRANCH  10  11
HETATM   11  C   UNL     1       2.665  -0.615  -0.231  1.00  0.00     0.171 C 
BRANCH  11  12
HETATM   12  C   UNL     1       3.793   0.400  -0.426  1.00  0.00     0.188 C 
BRANCH  12  13
HETATM   13  O   UNL     1       3.846   1.277   0.701  1.00  0.00    -0.399 OA
HETATM   14  H   UNL     1       4.540   1.948   0.646  1.00  0.00     0.209 HD
ENDBRANCH  12  13
ENDBRANCH  11  12
ENDBRANCH  10  11
ENDBRANCH   1  10
TORSDOF 6
