QFP
  -OEChem-07282321083D

 23 23  0     0  0  0  0  0  0999 V2000
   -1.3540    1.1810   -0.1700 C   0  0  0  0  0  0  0  0  0  0  0  0
   -3.5330   -0.4960    0.1860 C   0  0  0  0  0  0  0  0  0  0  0  0
   -2.6310    1.7010   -0.1540 C   0  0  0  0  0  0  0  0  0  0  0  0
    2.6650   -0.6150   -0.2310 C   0  0  0  0  0  0  0  0  0  0  0  0
   -3.7200    0.8650    0.0240 C   0  0  0  0  0  0  0  0  0  0  0  0
   -2.2610   -1.0290    0.1590 C   0  0  0  0  0  0  0  0  0  0  0  0
   -1.1610   -0.1910   -0.0140 C   0  0  0  0  0  0  0  0  0  0  0  0
    0.2900   -0.7910   -0.0460 B   0  0  0  0  0  0  0  0  0  0  0  0
    1.4090    0.0650   -0.2220 O   0  0  0  0  0  0  0  0  0  0  0  0
    0.4830   -2.1900    0.1020 O   0  0  0  0  0  0  0  0  0  0  0  0
    3.7930    0.4000   -0.4260 C   0  0  0  0  0  0  0  0  0  0  0  0
    3.8460    1.2770    0.7010 O   0  0  0  0  0  0  0  0  0  0  0  0
   -0.5050    1.8340   -0.3090 H   0  0  0  0  0  0  0  0  0  0  0  0
   -4.3860   -1.1440    0.3240 H   0  0  0  0  0  0  0  0  0  0  0  0
   -2.7820    2.7630   -0.2790 H   0  0  0  0  0  0  0  0  0  0  0  0
    2.8040   -1.1340    0.7170 H   0  0  0  0  0  0  0  0  0  0  0  0
    2.6820   -1.3370   -1.0470 H   0  0  0  0  0  0  0  0  0  0  0  0
   -4.7180    1.2770    0.0360 H   0  0  0  0  0  0  0  0  0  0  0  0
   -2.1170   -2.0920    0.2810 H   0  0  0  0  0  0  0  0  0  0  0  0
   -0.3370   -2.6900    0.2160 H   0  0  0  0  0  0  0  0  0  0  0  0
    4.7430   -0.1260   -0.5220 H   0  0  0  0  0  0  0  0  0  0  0  0
    3.6070    0.9820   -1.3290 H   0  0  0  0  0  0  0  0  0  0  0  0
    4.5400    1.9480    0.6460 H   0  0  0  0  0  0  0  0  0  0  0  0
 11 12  1  0  0  0  0
  4 11  1  0  0  0  0
  8 10  1  0  0  0  0
  4  9  1  0  0  0  0
  8  9  1  0  0  0  0
  7  8  1  0  0  0  0
  6  7  2  0  0  0  0
  2  6  1  0  0  0  0
  1  7  1  0  0  0  0
  2  5  2  0  0  0  0
  1  3  2  0  0  0  0
  3  5  1  0  0  0  0
  1 13  1  0  0  0  0
  2 14  1  0  0  0  0
  3 15  1  0  0  0  0
  4 16  1  0  0  0  0
  4 17  1  0  0  0  0
  5 18  1  0  0  0  0
  6 19  1  0  0  0  0
 10 20  1  0  0  0  0
 11 21  1  0  0  0  0
 11 22  1  0  0  0  0
 12 23  1  0  0  0  0
M  END
> <OPENEYE_ISO_SMILES>
B(c1ccccc1)(O)OCCO

> <OPENEYE_INCHI>
InChI=1S/C8H11BO3/c10-6-7-12-9(11)8-4-2-1-3-5-8/h1-5,10-11H,6-7H2

> <OPENEYE_INCHIKEY>
MCBDCMMJWCRCFZ-UHFFFAOYSA-N

> <FORMULA>
C8H11BO3

$$$$
