QFS
  -OEChem-07282321083D

 27 27  0     0  0  0  0  0  0999 V2000
   -0.4310    1.3740   -0.2050 C   0  0  0  0  0  0  0  0  0  0  0  0
   -2.7460   -0.1340    0.0540 C   0  0  0  0  0  0  0  0  0  0  0  0
   -1.6640    1.9950   -0.2060 C   0  0  0  0  0  0  0  0  0  0  0  0
    3.4370   -0.7260   -0.2130 C   0  0  0  0  0  0  0  0  0  0  0  0
   -2.8190    1.2470   -0.0770 C   0  0  0  0  0  0  0  0  0  0  0  0
   -1.5140   -0.7660    0.0450 C   0  0  0  0  0  0  0  0  0  0  0  0
   -0.3490   -0.0120   -0.0790 C   0  0  0  0  0  0  0  0  0  0  0  0
    1.0510   -0.7220   -0.0910 B   0  0  0  0  0  0  0  0  0  0  0  0
    2.2370    0.0490   -0.2180 O   0  0  0  0  0  0  0  0  0  0  0  0
    1.1320   -2.1350    0.0260 O   0  0  0  0  0  0  0  0  0  0  0  0
    4.6450    0.2030   -0.3550 C   0  0  0  0  0  0  0  0  0  0  0  0
    4.7350    1.0460    0.7960 O   0  0  0  0  0  0  0  0  0  0  0  0
   -3.8850   -0.8650    0.1800 O   0  0  0  0  0  0  0  0  0  0  0  0
   -5.1210   -0.1490    0.1700 C   0  0  0  0  0  0  0  0  0  0  0  0
    0.4690    1.9620   -0.3060 H   0  0  0  0  0  0  0  0  0  0  0  0
   -1.7260    3.0690   -0.3070 H   0  0  0  0  0  0  0  0  0  0  0  0
    3.5100   -1.2770    0.7250 H   0  0  0  0  0  0  0  0  0  0  0  0
    3.4190   -1.4280   -1.0460 H   0  0  0  0  0  0  0  0  0  0  0  0
   -3.7820    1.7370   -0.0780 H   0  0  0  0  0  0  0  0  0  0  0  0
   -1.4560   -1.8400    0.1430 H   0  0  0  0  0  0  0  0  0  0  0  0
    0.2730   -2.5720    0.1080 H   0  0  0  0  0  0  0  0  0  0  0  0
    5.5530   -0.3930   -0.4400 H   0  0  0  0  0  0  0  0  0  0  0  0
    4.5280    0.8170   -1.2470 H   0  0  0  0  0  0  0  0  0  0  0  0
    5.4790    1.6620    0.7740 H   0  0  0  0  0  0  0  0  0  0  0  0
   -5.9480   -0.8500    0.2790 H   0  0  0  0  0  0  0  0  0  0  0  0
   -5.1360    0.5610    0.9970 H   0  0  0  0  0  0  0  0  0  0  0  0
   -5.2220    0.3890   -0.7720 H   0  0  0  0  0  0  0  0  0  0  0  0
 11 12  1  0  0  0  0
  4 11  1  0  0  0  0
  8 10  1  0  0  0  0
 13 14  1  0  0  0  0
  4  9  1  0  0  0  0
  8  9  1  0  0  0  0
  7  8  1  0  0  0  0
  6  7  2  0  0  0  0
  2  6  1  0  0  0  0
  2 13  1  0  0  0  0
  1  7  1  0  0  0  0
  2  5  2  0  0  0  0
  1  3  2  0  0  0  0
  3  5  1  0  0  0  0
  1 15  1  0  0  0  0
  3 16  1  0  0  0  0
  4 17  1  0  0  0  0
  4 18  1  0  0  0  0
  5 19  1  0  0  0  0
  6 20  1  0  0  0  0
 10 21  1  0  0  0  0
 11 22  1  0  0  0  0
 11 23  1  0  0  0  0
 12 24  1  0  0  0  0
 14 25  1  0  0  0  0
 14 26  1  0  0  0  0
 14 27  1  0  0  0  0
M  END
> <OPENEYE_ISO_SMILES>
B(c1cccc(c1)OC)(O)OCCO

> <OPENEYE_INCHI>
InChI=1S/C9H13BO4/c1-13-9-4-2-3-8(7-9)10(12)14-6-5-11/h2-4,7,11-12H,5-6H2,1H3

> <OPENEYE_INCHIKEY>
ZOVRPEMVSXQSPK-UHFFFAOYSA-N

> <FORMULA>
C9H13BO4

$$$$
