QQZ
  -OEChem-07282321083D

 33 34  0     0  0  0  0  0  0999 V2000
    2.9280    0.1050   -0.0740 B   0  0  0  0  0  0  0  0  0  0  0  0
    1.6080    0.7270   -0.6530 C   0  0  0  0  0  0  0  0  0  0  0  0
    1.1510    1.8060    0.2260 N   0  0  0  0  0  0  0  0  0  0  0  0
    3.4830    0.6110    1.1300 O   0  0  0  0  0  0  0  0  0  0  0  0
    3.5630   -0.9690   -0.7530 O   0  0  0  0  0  0  0  0  0  0  0  0
   -0.2280    2.6460   -0.1420 S   0  0  0  0  0  0  0  0  0  0  0  0
   -0.4170    3.5870    0.9060 O   0  0  0  0  0  0  0  0  0  0  0  0
   -0.1190    3.0180   -1.5090 O   0  0  0  0  0  0  0  0  0  0  0  0
   -1.5730    1.5120   -0.0410 C   0  0  0  0  0  0  0  0  0  0  0  0
   -2.2500    1.3340    1.1570 C   0  0  0  0  0  0  0  0  0  0  0  0
   -3.3000    0.4330    1.1950 C   0  0  0  0  0  0  0  0  0  0  0  0
   -3.6400   -0.2610    0.0340 C   0  0  0  0  0  0  0  0  0  0  0  0
   -2.9660   -0.0610   -1.0920 N   0  0  0  0  0  0  0  0  0  0  0  0
   -1.9670    0.7950   -1.1560 C   0  0  0  0  0  0  0  0  0  0  0  0
   -4.7600   -1.2280    0.0580 C   0  0  0  0  0  0  0  0  0  0  0  0
   -5.2060   -1.9780   -0.9780 N   0  0  0  0  0  0  0  0  0  0  0  0
   -6.1920   -2.6830   -0.5370 N   0  0  0  0  0  0  0  0  0  0  0  0
   -6.3790   -2.4120    0.7070 N   0  0  0  0  0  0  0  0  0  0  0  0
   -5.5190   -1.5340    1.0930 N   0  0  0  0  0  0  0  0  0  0  0  0
    4.9040   -1.4960   -0.0340 P   0  0  0  0  0  0  0  0  0  0  0  0
    5.5310   -2.7070   -0.8900 O   0  0  0  0  0  0  0  0  0  0  0  0
    5.8850   -0.3910    0.0510 O   0  0  0  0  0  0  0  0  0  0  0  0
    4.5500   -2.0140    1.4490 O   0  0  0  0  0  0  0  0  0  0  0  0
    1.8010    1.1270   -1.6480 H   0  0  0  0  0  0  0  0  0  0  0  0
    0.8390   -0.0430   -0.7130 H   0  0  0  0  0  0  0  0  0  0  0  0
    1.6560    2.0290    1.0240 H   0  0  0  0  0  0  0  0  0  0  0  0
    4.2950    0.1650    1.4080 H   0  0  0  0  0  0  0  0  0  0  0  0
   -1.9640    1.8850    2.0410 H   0  0  0  0  0  0  0  0  0  0  0  0
   -3.8490    0.2690    2.1110 H   0  0  0  0  0  0  0  0  0  0  0  0
   -1.4440    0.9340   -2.0910 H   0  0  0  0  0  0  0  0  0  0  0  0
   -4.8510   -1.9840   -1.8810 H   0  0  0  0  0  0  0  0  0  0  0  0
    6.3430   -3.0740   -0.5140 H   0  0  0  0  0  0  0  0  0  0  0  0
    3.9110   -2.7390    1.4700 H   0  0  0  0  0  0  0  0  0  0  0  0
 20 22  2  0  0  0  0
 20 23  1  0  0  0  0
 20 21  1  0  0  0  0
  5 20  1  0  0  0  0
  1  5  1  0  0  0  0
  6  8  2  0  0  0  0
  1  4  1  0  0  0  0
  1  2  1  0  0  0  0
  3  6  1  0  0  0  0
  2  3  1  0  0  0  0
  6  7  2  0  0  0  0
  6  9  1  0  0  0  0
  9 14  2  0  0  0  0
 13 14  1  0  0  0  0
  9 10  1  0  0  0  0
 12 13  2  0  0  0  0
 10 11  2  0  0  0  0
 11 12  1  0  0  0  0
 12 15  1  0  0  0  0
 15 16  1  0  0  0  0
 16 17  1  0  0  0  0
 15 19  2  0  0  0  0
 17 18  2  0  0  0  0
 18 19  1  0  0  0  0
  2 24  1  0  0  0  0
  2 25  1  0  0  0  0
  3 26  1  0  0  0  0
  4 27  1  0  0  0  0
 10 28  1  0  0  0  0
 11 29  1  0  0  0  0
 14 30  1  0  0  0  0
 16 31  1  0  0  0  0
 21 32  1  0  0  0  0
 23 33  1  0  0  0  0
M  END
> <OPENEYE_ISO_SMILES>
B(CNS(=O)(=O)c1ccc(nc1)c2[nH]nnn2)(O)OP(=O)(O)O

> <OPENEYE_INCHI>
InChI=1S/C7H10BN6O7PS/c15-8(21-22(16,17)18)4-10-23(19,20)5-1-2-6(9-3-5)7-11-13-14-12-7/h1-3,10,15H,4H2,(H2,16,17,18)(H,11,12,13,14)

> <OPENEYE_INCHIKEY>
NHSMXLLDAOLTTP-UHFFFAOYSA-N

> <FORMULA>
C7H10BN6O7PS

$$$$
