REMARK  10 active torsions:
REMARK  status: ('A' for Active; 'I' for Inactive)
REMARK    1  A    between atoms: B_1  and  O_5 
REMARK    2  A    between atoms: B_1  and  O_4 
REMARK    3  A    between atoms: B_1  and  C_2 
REMARK    4  A    between atoms: C_2  and  N_3 
REMARK    5  A    between atoms: N_3  and  S_6 
REMARK    6  A    between atoms: O_5  and  P_20 
REMARK    7  A    between atoms: S_6  and  C_9 
REMARK    8  A    between atoms: C_12  and  C_15 
REMARK    9  A    between atoms: P_20  and  O_23 
REMARK   10  A    between atoms: P_20  and  O_21 
ROOT
HETATM    1  S   UNL     1      -0.228   2.646  -0.142  1.00  0.00     0.259 S 
HETATM    2  O   UNL     1      -0.417   3.587   0.906  1.00  0.00    -0.201 OA
HETATM    3  O   UNL     1      -0.119   3.018  -1.509  1.00  0.00    -0.201 OA
ENDROOT
BRANCH   1   4
HETATM    4  N   UNL     1       1.151   1.806   0.226  1.00  0.00    -0.319 N 
HETATM    5  H   UNL     1       1.656   2.029   1.024  1.00  0.00     0.171 HD
BRANCH   4   6
HETATM    6  C   UNL     1       1.608   0.727  -0.653  1.00  0.00     0.153 C 
BRANCH   6   7
HETATM    7  B   UNL     1       2.928   0.105  -0.074  1.00  0.00     0.521 B 
BRANCH   7   8
HETATM    8  O   UNL     1       3.563  -0.969  -0.753  1.00  0.00    -0.334 OA
BRANCH   8   9
HETATM    9  P   UNL     1       4.904  -1.496  -0.034  1.00  0.00     0.375 P 
HETATM   10  O   UNL     1       5.885  -0.391   0.051  1.00  0.00    -0.632 OA
BRANCH   9  11
HETATM   11  O   UNL     1       4.550  -2.014   1.449  1.00  0.00    -0.308 OA
HETATM   12  H   UNL     1       3.911  -2.739   1.470  1.00  0.00     0.222 HD
ENDBRANCH   9  11
BRANCH   9  13
HETATM   13  O   UNL     1       5.531  -2.707  -0.890  1.00  0.00    -0.308 OA
HETATM   14  H   UNL     1       6.343  -3.074  -0.514  1.00  0.00     0.222 HD
ENDBRANCH   9  13
ENDBRANCH   8   9
ENDBRANCH   7   8
BRANCH   7  15
HETATM   15  O   UNL     1       3.483   0.611   1.130  1.00  0.00    -0.436 OA
HETATM   16  H   UNL     1       4.295   0.165   1.408  1.00  0.00     0.184 HD
ENDBRANCH   7  15
ENDBRANCH   6   7
ENDBRANCH   4   6
ENDBRANCH   1   4
BRANCH   1  17
HETATM   17  C   UNL     1      -1.573   1.512  -0.041  1.00  0.00     0.097 A 
HETATM   18  C   UNL     1      -1.967   0.795  -1.156  1.00  0.00     0.142 A 
HETATM   19  N   UNL     1      -2.966  -0.061  -1.092  1.00  0.00    -0.256 NA
HETATM   20  C   UNL     1      -3.640  -0.261   0.034  1.00  0.00     0.105 A 
HETATM   21  C   UNL     1      -3.300   0.433   1.195  1.00  0.00     0.037 A 
HETATM   22  C   UNL     1      -2.250   1.334   1.157  1.00  0.00     0.029 A 
BRANCH  20  23
HETATM   23  C   UNL     1      -4.760  -1.228   0.058  1.00  0.00     0.198 A 
HETATM   24  N   UNL     1      -5.206  -1.978  -0.978  1.00  0.00    -0.238 N 
HETATM   25  N   UNL     1      -6.192  -2.683  -0.537  1.00  0.00    -0.046 NA
HETATM   26  H   UNL     1      -4.851  -1.984  -1.881  1.00  0.00     0.192 HD
HETATM   27  N   UNL     1      -6.379  -2.412   0.707  1.00  0.00    -0.023 NA
HETATM   28  N   UNL     1      -5.519  -1.534   1.093  1.00  0.00    -0.107 NA
ENDBRANCH  20  23
ENDBRANCH   1  17
TORSDOF 10
