REMARK  5 active torsions:
REMARK  status: ('A' for Active; 'I' for Inactive)
REMARK    1  A    between atoms: C_1  and  N_9 
REMARK    2  A    between atoms: S_5  and  O_8 
REMARK    3  A    between atoms: S_5  and  O_6 
REMARK    4  A    between atoms: O_8  and  N_9 
REMARK    5  A    between atoms: N_13  and  C_14 
ROOT
HETATM    1  C   UNL     1       0.358   0.527   0.170  1.00  0.00     0.103 C 
HETATM    2  C   UNL     1       1.082   1.860  -0.034  1.00  0.00     0.028 C 
HETATM    3  C   UNL     1       2.532   1.733   0.440  1.00  0.00     0.061 C 
HETATM    4  C   UNL     1       3.245   0.663  -0.392  1.00  0.00     0.273 C 
HETATM    5  F   UNL     1       4.530   0.451   0.118  1.00  0.00    -0.227 F 
HETATM    6  C   UNL     1       1.047  -0.557  -0.665  1.00  0.00     0.150 C 
HETATM    7  N   UNL     1       2.474  -0.586  -0.317  1.00  0.00    -0.327 N 
ENDROOT
BRANCH   1   8
HETATM    8  N   UNL     1      -1.042   0.659  -0.256  1.00  0.00    -0.180 NA
HETATM    9  H   UNL     1      -1.353   1.616  -0.182  1.00  0.00     0.155 HD
BRANCH   8  10
HETATM   10  O   UNL     1      -1.910  -0.235   0.510  1.00  0.00    -0.167 OA
BRANCH  10  11
HETATM   11  S   UNL     1      -3.379  -0.153   0.123  1.00  0.00     0.257 S 
HETATM   12  O   UNL     1      -4.091  -0.921   1.084  1.00  0.00    -0.578 OA
HETATM   13  O   UNL     1      -3.651   1.218  -0.133  1.00  0.00    -0.578 OA
BRANCH  11  14
HETATM   14  O   UNL     1      -3.536  -0.878  -1.206  1.00  0.00    -0.273 OA
HETATM   15  H   UNL     1      -4.441  -0.885  -1.546  1.00  0.00     0.234 HD
ENDBRANCH  11  14
ENDBRANCH  10  11
ENDBRANCH   8  10
ENDBRANCH   1   8
BRANCH   7  16
HETATM   16  C   UNL     1       3.065  -1.736   0.062  1.00  0.00     0.353 C 
HETATM   17  O   UNL     1       4.244  -1.747   0.346  1.00  0.00    -0.283 OA
ENDBRANCH   7  16
TORSDOF 5
