QS8
  -OEChem-07282321083D

 26 26  0     1  0  0  0  0  0999 V2000
    0.3580    0.5270    0.1700 C   0  0  1  0  0  0  0  0  0  0  0  0
    1.0820    1.8600   -0.0340 C   0  0  0  0  0  0  0  0  0  0  0  0
    2.5320    1.7330    0.4400 C   0  0  0  0  0  0  0  0  0  0  0  0
   -4.0910   -0.9210    1.0840 O   0  0  0  0  0  0  0  0  0  0  0  0
   -3.3790   -0.1530    0.1230 S   0  0  0  0  0  0  0  0  0  0  0  0
   -3.5360   -0.8780   -1.2060 O   0  0  0  0  0  0  0  0  0  0  0  0
   -3.6510    1.2180   -0.1330 O   0  0  0  0  0  0  0  0  0  0  0  0
   -1.9100   -0.2350    0.5100 O   0  0  0  0  0  0  0  0  0  0  0  0
   -1.0420    0.6590   -0.2560 N   0  0  0  0  0  0  0  0  0  0  0  0
    3.2450    0.6630   -0.3920 C   0  0  1  0  0  0  0  0  0  0  0  0
    4.5300    0.4510    0.1180 F   0  0  0  0  0  0  0  0  0  0  0  0
    1.0470   -0.5570   -0.6650 C   0  0  0  0  0  0  0  0  0  0  0  0
    2.4740   -0.5860   -0.3170 N   0  0  0  0  0  0  0  0  0  0  0  0
    3.0650   -1.7360    0.0620 C   0  0  0  0  0  0  0  0  0  0  0  0
    4.2440   -1.7470    0.3460 O   0  0  0  0  0  0  0  0  0  0  0  0
    0.3940    0.2520    1.2240 H   0  0  0  0  0  0  0  0  0  0  0  0
    1.0680    2.1230   -1.0920 H   0  0  0  0  0  0  0  0  0  0  0  0
    0.5790    2.6380    0.5400 H   0  0  0  0  0  0  0  0  0  0  0  0
    3.0400    2.6890    0.3160 H   0  0  0  0  0  0  0  0  0  0  0  0
    2.5470    1.4460    1.4920 H   0  0  0  0  0  0  0  0  0  0  0  0
   -1.3530    1.6160   -0.1820 H   0  0  0  0  0  0  0  0  0  0  0  0
    3.3130    0.9910   -1.4290 H   0  0  0  0  0  0  0  0  0  0  0  0
    0.5980   -1.5260   -0.4470 H   0  0  0  0  0  0  0  0  0  0  0  0
    0.9330   -0.3290   -1.7250 H   0  0  0  0  0  0  0  0  0  0  0  0
    2.4890   -2.6480    0.1130 H   0  0  0  0  0  0  0  0  0  0  0  0
   -4.4410   -0.8850   -1.5460 H   0  0  0  0  0  0  0  0  0  0  0  0
  5  7  2  0  0  0  0
  4  5  2  0  0  0  0
  1  9  1  0  0  0  0
  8  9  1  0  0  0  0
  1 12  1  0  0  0  0
  1  2  1  0  0  0  0
  5  8  1  0  0  0  0
  5  6  1  0  0  0  0
 12 13  1  0  0  0  0
  2  3  1  0  0  0  0
 13 14  1  0  0  0  0
 10 13  1  0  0  0  0
 14 15  2  0  0  0  0
  3 10  1  0  0  0  0
 10 11  1  0  0  0  0
  1 16  1  0  0  0  0
  2 17  1  0  0  0  0
  2 18  1  0  0  0  0
  3 19  1  0  0  0  0
  3 20  1  0  0  0  0
  9 21  1  0  0  0  0
 10 22  1  0  0  0  0
 12 23  1  0  0  0  0
 12 24  1  0  0  0  0
 14 25  1  0  0  0  0
  6 26  1  0  0  0  0
M  END
> <OPENEYE_ISO_SMILES>
C1C[C@H](N(C[C@@H]1NOS(=O)(=O)O)C=O)F

> <OPENEYE_INCHI>
InChI=1S/C6H11FN2O5S/c7-6-2-1-5(3-9(6)4-10)8-14-15(11,12)13/h4-6,8H,1-3H2,(H,11,12,13)/t5-,6+/m1/s1

> <OPENEYE_INCHIKEY>
NHFNUMMVPZGHRV-RITPCOANSA-N

> <FORMULA>
C6H11FN2O5S

$$$$
