REMARK  10 active torsions:
REMARK  status: ('A' for Active; 'I' for Inactive)
REMARK    1  A    between atoms: C_3  and  C_12 
REMARK    2  A    between atoms: C_4  and  C_12 
REMARK    3  A    between atoms: C_4  and  O_16 
REMARK    4  A    between atoms: C_5  and  C_12 
REMARK    5  A    between atoms: C_5  and  O_22 
REMARK    6  A    between atoms: C_6  and  OXT_14 
REMARK    7  A    between atoms: C_6  and  CA_7 
REMARK    8  A    between atoms: C_8  and  C_9 
REMARK    9  A    between atoms: C_9  and  C_10 
REMARK   10  A    between atoms: C_10  and  C_11 
ROOT
HETATM    1  C   UNL     1      -1.090   0.235  -0.556  1.00  0.00     0.165 A 
HETATM    2  CA  UNL     1       0.936  -0.895   0.044  1.00  0.00     0.116 A 
HETATM    3  C   UNL     1       1.391   0.324   0.366  1.00  0.00     0.013 A 
HETATM    4  N   UNL     1      -0.355  -1.031  -0.447  1.00  0.00    -0.369 N 
HETATM    5  S   UNL     1       0.095   1.485   0.038  1.00  0.00    -0.105 SA
HETATM    6  H   UNL     1      -0.738  -1.886  -0.696  1.00  0.00     0.161 HD
ENDROOT
BRANCH   1   7
HETATM    7  C   UNL     1      -2.336   0.213   0.331  1.00  0.00     0.145 C 
BRANCH   7   8
HETATM    8  C   UNL     1      -3.051   1.563   0.240  1.00  0.00     0.131 C 
HETATM    9  C   UNL     1      -3.480   1.816  -1.207  1.00  0.00     0.040 C 
BRANCH   8  10
HETATM   10  O   UNL     1      -4.204   1.550   1.084  1.00  0.00    -0.395 OA
HETATM   11  H   UNL     1      -4.707   2.375   1.076  1.00  0.00     0.210 HD
ENDBRANCH   8  10
ENDBRANCH   7   8
BRANCH   7  12
HETATM   12  C   UNL     1      -3.264  -0.879  -0.133  1.00  0.00     0.149 C 
HETATM   13  O   UNL     1      -2.961  -1.569  -1.077  1.00  0.00    -0.650 OA
BRANCH  12  14
HETATM   14  O   UNL     1      -4.429  -1.085   0.502  1.00  0.00    -0.776 OA
HETATM   15  H   UNL     1      -4.991  -1.797   0.167  1.00  0.00     0.167 HD
ENDBRANCH  12  14
ENDBRANCH   7  12
ENDBRANCH   1   7
BRANCH   2  16
HETATM   16  C   UNL     1       1.763  -2.032   0.204  1.00  0.00     0.194 C 
HETATM   17  O   UNL     1       2.925  -1.897   0.540  1.00  0.00    -0.645 OA
BRANCH  16  18
HETATM   18  OXT UNL     1       1.263  -3.267  -0.017  1.00  0.00    -0.772 OA
HETATM   19  HXT UNL     1       1.902  -3.980   0.117  1.00  0.00     0.167 HD
ENDBRANCH  16  18
ENDBRANCH   2  16
BRANCH   3  20
HETATM   20  C   UNL     1       2.760   0.648   0.909  1.00  0.00     0.048 C 
BRANCH  20  21
HETATM   21  C   UNL     1       3.729   0.872  -0.253  1.00  0.00     0.005 C 
BRANCH  21  22
HETATM   22  C   UNL     1       5.118   1.200   0.298  1.00  0.00    -0.004 C 
HETATM   23  C   UNL     1       6.088   1.424  -0.864  1.00  0.00     0.005 C 
ENDBRANCH  21  22
ENDBRANCH  20  21
ENDBRANCH   3  20
TORSDOF 10
