R0B
  -OEChem-07282321083D

 38 38  0     1  0  0  0  0  0999 V2000
    6.0880    1.4240   -0.8640 C   0  0  0  0  0  0  0  0  0  0  0  0
   -3.4800    1.8160   -1.2070 C   0  0  0  0  0  0  0  0  0  0  0  0
   -1.0900    0.2350   -0.5560 C   0  0  2  0  0  0  0  0  0  0  0  0
   -3.0510    1.5630    0.2400 C   0  0  2  0  0  0  0  0  0  0  0  0
   -3.2640   -0.8790   -0.1330 C   0  0  0  0  0  0  0  0  0  0  0  0
    1.7630   -2.0320    0.2040 C   0  0  0  0  0  0  0  0  0  0  0  0
    0.9360   -0.8950    0.0440 C   0  0  0  0  0  0  0  0  0  0  0  0
    1.3910    0.3240    0.3660 C   0  0  0  0  0  0  0  0  0  0  0  0
    2.7600    0.6480    0.9090 C   0  0  0  0  0  0  0  0  0  0  0  0
    3.7290    0.8720   -0.2530 C   0  0  0  0  0  0  0  0  0  0  0  0
    5.1180    1.2000    0.2980 C   0  0  0  0  0  0  0  0  0  0  0  0
   -2.3360    0.2130    0.3310 C   0  0  1  0  0  0  0  0  0  0  0  0
   -0.3550   -1.0310   -0.4470 N   0  0  0  0  0  0  0  0  0  0  0  0
    1.2630   -3.2670   -0.0170 O   0  0  0  0  0  0  0  0  0  0  0  0
    2.9250   -1.8970    0.5400 O   0  0  0  0  0  0  0  0  0  0  0  0
   -4.2040    1.5500    1.0840 O   0  0  0  0  0  0  0  0  0  0  0  0
   -2.9610   -1.5690   -1.0770 O   0  0  0  0  0  0  0  0  0  0  0  0
    0.0950    1.4850    0.0380 S   0  0  0  0  0  0  0  0  0  0  0  0
    6.1430    0.5200   -1.4710 H   0  0  0  0  0  0  0  0  0  0  0  0
    5.7350    2.2530   -1.4780 H   0  0  0  0  0  0  0  0  0  0  0  0
    7.0780    1.6580   -0.4720 H   0  0  0  0  0  0  0  0  0  0  0  0
   -4.0760    0.9750   -1.5610 H   0  0  0  0  0  0  0  0  0  0  0  0
   -4.0740    2.7290   -1.2550 H   0  0  0  0  0  0  0  0  0  0  0  0
   -2.5950    1.9240   -1.8340 H   0  0  0  0  0  0  0  0  0  0  0  0
   -1.3630    0.4300   -1.5930 H   0  0  0  0  0  0  0  0  0  0  0  0
   -2.3740    2.3550    0.5620 H   0  0  0  0  0  0  0  0  0  0  0  0
    2.7050    1.5520    1.5160 H   0  0  0  0  0  0  0  0  0  0  0  0
    3.1120   -0.1810    1.5220 H   0  0  0  0  0  0  0  0  0  0  0  0
    3.7840   -0.0320   -0.8600 H   0  0  0  0  0  0  0  0  0  0  0  0
    3.3760    1.7000   -0.8670 H   0  0  0  0  0  0  0  0  0  0  0  0
    5.4710    0.3710    0.9110 H   0  0  0  0  0  0  0  0  0  0  0  0
    5.0640    2.1040    0.9050 H   0  0  0  0  0  0  0  0  0  0  0  0
   -2.0430    0.0260    1.3650 H   0  0  0  0  0  0  0  0  0  0  0  0
   -0.7380   -1.8860   -0.6960 H   0  0  0  0  0  0  0  0  0  0  0  0
    1.9020   -3.9800    0.1170 H   0  0  0  0  0  0  0  0  0  0  0  0
   -4.7070    2.3750    1.0760 H   0  0  0  0  0  0  0  0  0  0  0  0
   -4.4290   -1.0850    0.5020 O   0  0  0  0  0  0  0  0  0  0  0  0
   -4.9910   -1.7970    0.1670 H   0  0  0  0  0  0  0  0  0  0  0  0
  6 15  2  0  0  0  0
  6 14  1  0  0  0  0
  6  7  1  0  0  0  0
  1 11  1  0  0  0  0
 10 11  1  0  0  0  0
  9 10  1  0  0  0  0
  8  9  1  0  0  0  0
  5 17  2  0  0  0  0
  7  8  2  0  0  0  0
  7 13  1  0  0  0  0
  8 18  1  0  0  0  0
  5 12  1  0  0  0  0
  3 13  1  0  0  0  0
  3 12  1  0  0  0  0
  4 12  1  0  0  0  0
  3 18  1  0  0  0  0
  2  4  1  0  0  0  0
  4 16  1  0  0  0  0
  1 19  1  0  0  0  0
  1 20  1  0  0  0  0
  1 21  1  0  0  0  0
  2 22  1  0  0  0  0
  2 23  1  0  0  0  0
  2 24  1  0  0  0  0
  3 25  1  0  0  0  0
  4 26  1  0  0  0  0
  9 27  1  0  0  0  0
  9 28  1  0  0  0  0
 10 29  1  0  0  0  0
 10 30  1  0  0  0  0
 11 31  1  0  0  0  0
 11 32  1  0  0  0  0
 12 33  1  0  0  0  0
 13 34  1  0  0  0  0
 14 35  1  0  0  0  0
 16 36  1  0  0  0  0
  5 37  1  0  0  0  0
 37 38  1  0  0  0  0
M  END
> <OPENEYE_ISO_SMILES>
CCCCC1=C(N[C@H](S1)[C@@H]([C@@H](C)O)C(=O)O)C(=O)O

> <OPENEYE_INCHI>
InChI=1S/C12H19NO5S/c1-3-4-5-7-9(12(17)18)13-10(19-7)8(6(2)14)11(15)16/h6,8,10,13-14H,3-5H2,1-2H3,(H,15,16)(H,17,18)/t6-,8-,10-/m1/s1

> <OPENEYE_INCHIKEY>
XZQPLQFTHPIJQP-GTNGPMTGSA-N

> <FORMULA>
C12H19NO5S

$$$$
