REMARK  3 active torsions:
REMARK  status: ('A' for Active; 'I' for Inactive)
REMARK    1  A    between atoms: B_1  and  O_16 
REMARK    2  A    between atoms: C_2  and  C_3 
REMARK    3  A    between atoms: C_2  and  O_13 
ROOT
HETATM    1  B   UNL     1       2.159  -1.138  -0.272  1.00  0.00     0.503 B 
HETATM    2  C   UNL     1      -1.175  -0.011   0.083  1.00  0.00     0.108 A 
HETATM    3  C   UNL     1      -1.934   1.126  -0.215  1.00  0.00     0.136 A 
HETATM    4  C   UNL     1      -1.301   2.335  -0.431  1.00  0.00     0.044 A 
HETATM    5  C   UNL     1       0.077   2.421  -0.355  1.00  0.00     0.013 A 
HETATM    6  C   UNL     1       0.840   1.304  -0.062  1.00  0.00    -0.021 A 
HETATM    7  C   UNL     1       0.225   0.084   0.162  1.00  0.00     0.079 A 
HETATM    8  C   UNL     1       3.123   0.118  -0.131  1.00  0.00     0.021 A 
HETATM    9  C   UNL     1       3.065   0.853   1.213  1.00  0.00     0.010 A 
HETATM   10  C   UNL     1       2.344   1.445   0.003  1.00  0.00     0.021 A 
HETATM   11  F   UNL     1      -3.280   1.042  -0.292  1.00  0.00    -0.205 F 
HETATM   12  O   UNL     1       0.934  -1.036   0.465  1.00  0.00    -0.387 OA
ENDROOT
BRANCH   2  13
HETATM   13  C   UNL     1      -1.842  -1.303   0.315  1.00  0.00     0.182 C 
HETATM   14  O   UNL     1      -2.190  -1.615   1.437  1.00  0.00    -0.646 OA
BRANCH  13  15
HETATM   15  O   UNL     1      -2.067  -2.140  -0.717  1.00  0.00    -0.772 OA
HETATM   16  H   UNL     1      -2.508  -2.977  -0.516  1.00  0.00     0.167 HD
ENDBRANCH  13  15
ENDBRANCH   2  13
BRANCH   1  17
HETATM   17  O   UNL     1       2.483  -2.267  -1.069  1.00  0.00    -0.437 OA
HETATM   18  H   UNL     1       1.805  -2.957  -1.069  1.00  0.00     0.184 HD
ENDBRANCH   1  17
TORSDOF 3
