RM9
  -OEChem-07282321083D

 24 26  0     1  0  0  0  0  0999 V2000
    2.1590   -1.1380   -0.2720 B   0  0  0  0  0  0  0  0  0  0  0  0
   -1.8420   -1.3030    0.3150 C   0  0  0  0  0  0  0  0  0  0  0  0
   -1.1750   -0.0110    0.0830 C   0  0  0  0  0  0  0  0  0  0  0  0
   -1.9340    1.1260   -0.2150 C   0  0  0  0  0  0  0  0  0  0  0  0
   -1.3010    2.3350   -0.4310 C   0  0  0  0  0  0  0  0  0  0  0  0
    0.0770    2.4210   -0.3550 C   0  0  0  0  0  0  0  0  0  0  0  0
    0.8400    1.3040   -0.0620 C   0  0  0  0  0  0  0  0  0  0  0  0
    0.2250    0.0840    0.1620 C   0  0  0  0  0  0  0  0  0  0  0  0
    3.1230    0.1180   -0.1310 C   0  0  2  0  0  0  0  0  0  0  0  0
    3.0650    0.8530    1.2130 C   0  0  0  0  0  0  0  0  0  0  0  0
    2.3440    1.4450    0.0030 C   0  0  2  0  0  0  0  0  0  0  0  0
   -3.2800    1.0420   -0.2920 F   0  0  0  0  0  0  0  0  0  0  0  0
   -2.0670   -2.1400   -0.7170 O   0  0  0  0  0  0  0  0  0  0  0  0
   -2.1900   -1.6150    1.4370 O   0  0  0  0  0  0  0  0  0  0  0  0
    0.9340   -1.0360    0.4650 O   0  0  0  0  0  0  0  0  0  0  0  0
    2.4830   -2.2670   -1.0690 O   0  0  0  0  0  0  0  0  0  0  0  0
   -1.8840    3.2150   -0.6590 H   0  0  0  0  0  0  0  0  0  0  0  0
    0.5630    3.3700   -0.5270 H   0  0  0  0  0  0  0  0  0  0  0  0
    4.0650    0.0790   -0.6780 H   0  0  0  0  0  0  0  0  0  0  0  0
    2.4510    0.4150    1.9990 H   0  0  0  0  0  0  0  0  0  0  0  0
    3.9720    1.3550    1.5500 H   0  0  0  0  0  0  0  0  0  0  0  0
    2.7600    2.3350   -0.4680 H   0  0  0  0  0  0  0  0  0  0  0  0
   -2.5080   -2.9770   -0.5160 H   0  0  0  0  0  0  0  0  0  0  0  0
    1.8050   -2.9570   -1.0690 H   0  0  0  0  0  0  0  0  0  0  0  0
  5  6  2  0  0  0  0
  4  5  1  0  0  0  0
  6  7  1  0  0  0  0
  4 12  1  0  0  0  0
  3  4  2  0  0  0  0
  7 11  1  0  0  0  0
  7  8  2  0  0  0  0
  9 11  1  0  0  0  0
 10 11  1  0  0  0  0
  3  8  1  0  0  0  0
  2  3  1  0  0  0  0
  8 15  1  0  0  0  0
  9 10  1  0  0  0  0
  1  9  1  0  0  0  0
  1 16  1  0  0  0  0
  2 14  2  0  0  0  0
  1 15  1  0  0  0  0
  2 13  1  0  0  0  0
  5 17  1  0  0  0  0
  6 18  1  0  0  0  0
  9 19  1  0  0  0  0
 10 20  1  0  0  0  0
 10 21  1  0  0  0  0
 11 22  1  0  0  0  0
 13 23  1  0  0  0  0
 16 24  1  0  0  0  0
M  END
> <OPENEYE_ISO_SMILES>
B1([C@@H]2C[C@@H]2c3ccc(c(c3O1)C(=O)O)F)O

> <OPENEYE_INCHI>
InChI=1S/C10H8BFO4/c12-7-2-1-4-5-3-6(5)11(15)16-9(4)8(7)10(13)14/h1-2,5-6,15H,3H2,(H,13,14)/t5-,6-/m1/s1

> <OPENEYE_INCHIKEY>
KOHUFVUIYUCFNG-PHDIDXHHSA-N

> <FORMULA>
C10H8BFO4

$$$$
