S1Y
  -OEChem-07282321083D

 52 53  0     1  0  0  0  0  0999 V2000
   -5.7840    0.0170   -0.6470 S   0  0  0  0  0  0  0  0  0  0  0  0
   -6.0630   -0.3650   -1.9870 O   0  0  0  0  0  0  0  0  0  0  0  0
   -6.2370    1.4640   -0.5090 O   0  0  0  0  0  0  0  0  0  0  0  0
   -6.3000   -0.6740    0.4820 O   0  0  0  0  0  0  0  0  0  0  0  0
   -4.1350    0.0030   -0.4900 N   0  0  0  0  0  0  0  0  0  0  0  0
   -3.5170    0.3870    0.7810 C   0  0  2  0  0  0  0  0  0  0  0  0
   -2.9710    1.8370    0.7110 C   0  0  0  0  0  0  0  0  0  0  0  0
   -1.5960    1.6190    0.0310 C   0  0  0  0  0  0  0  0  0  0  0  0
   -1.0980    0.3470    0.5860 N   0  0  0  0  0  0  0  0  0  0  0  0
   -2.2460   -0.4490    1.0440 C   0  0  2  0  0  0  0  0  0  0  0  0
   -2.3140   -1.7410    0.2730 C   0  0  0  0  0  0  0  0  0  0  0  0
   -2.3740   -2.7940    0.8620 O   0  0  0  0  0  0  0  0  0  0  0  0
    0.1950   -0.0240    0.6610 C   0  0  0  0  0  0  0  0  0  0  0  0
    0.4910   -1.1020    1.1400 O   0  0  0  0  0  0  0  0  0  0  0  0
    1.1600    0.7980    0.2040 N   0  0  0  0  0  0  0  0  0  0  0  0
    2.5660    0.3940    0.2850 C   0  0  1  0  0  0  0  0  0  0  0  0
    2.9230   -0.4340   -0.9190 C   0  0  0  0  0  0  0  0  0  0  0  0
    3.9910   -1.5060   -0.6200 C   0  0  0  0  0  0  0  0  0  0  0  0
    5.1180   -0.9720    0.2850 C   0  0  0  0  0  0  0  0  0  0  0  0
    5.5120    0.3670   -0.0780 N   0  0  2  0  0  0  0  0  0  0  0  0
    6.9690    0.5320    0.0220 C   0  0  0  0  0  0  0  0  0  0  0  0
    7.6550   -0.3460   -1.0270 C   0  0  0  0  0  0  0  0  0  0  0  0
    9.1110   -0.1810   -0.9270 N   0  0  0  0  0  0  0  0  0  0  0  0
    4.8090    1.3390    0.7850 C   0  0  0  0  0  0  0  0  0  0  0  0
    3.4650    1.6500    0.3120 C   0  0  0  0  0  0  0  0  0  0  0  0
   -7.1940    1.5850   -0.5860 H   0  0  0  0  0  0  0  0  0  0  0  0
   -3.5790   -0.2590   -1.2400 H   0  0  0  0  0  0  0  0  0  0  0  0
   -4.2270    0.2780    1.6020 H   0  0  0  0  0  0  0  0  0  0  0  0
   -3.6150    2.4670    0.0970 H   0  0  0  0  0  0  0  0  0  0  0  0
   -2.8510    2.2590    1.7090 H   0  0  0  0  0  0  0  0  0  0  0  0
   -1.7150    1.5410   -1.0490 H   0  0  0  0  0  0  0  0  0  0  0  0
   -0.9160    2.4340    0.2810 H   0  0  0  0  0  0  0  0  0  0  0  0
   -2.1530   -0.6550    2.1100 H   0  0  0  0  0  0  0  0  0  0  0  0
   -2.3090   -1.7270   -0.8070 H   0  0  0  0  0  0  0  0  0  0  0  0
    0.9240    1.6580   -0.1780 H   0  0  0  0  0  0  0  0  0  0  0  0
    2.7270   -0.1890    1.1920 H   0  0  0  0  0  0  0  0  0  0  0  0
    2.0220   -0.9280   -1.2850 H   0  0  0  0  0  0  0  0  0  0  0  0
    3.3010    0.2270   -1.6990 H   0  0  0  0  0  0  0  0  0  0  0  0
    3.5130   -2.3530   -0.1270 H   0  0  0  0  0  0  0  0  0  0  0  0
    4.4240   -1.8460   -1.5610 H   0  0  0  0  0  0  0  0  0  0  0  0
    4.7720   -0.9720    1.3190 H   0  0  0  0  0  0  0  0  0  0  0  0
    5.9820   -1.6310    0.2010 H   0  0  0  0  0  0  0  0  0  0  0  0
    7.2290    1.5760   -0.1520 H   0  0  0  0  0  0  0  0  0  0  0  0
    7.3000    0.2360    1.0170 H   0  0  0  0  0  0  0  0  0  0  0  0
    7.3940   -1.3900   -0.8530 H   0  0  0  0  0  0  0  0  0  0  0  0
    7.3230   -0.0500   -2.0220 H   0  0  0  0  0  0  0  0  0  0  0  0
    9.4350   -0.3880    0.0060 H   0  0  0  0  0  0  0  0  0  0  0  0
    9.5870   -0.7520   -1.6090 H   0  0  0  0  0  0  0  0  0  0  0  0
    4.7400    0.9280    1.7930 H   0  0  0  0  0  0  0  0  0  0  0  0
    5.3890    2.2610    0.8220 H   0  0  0  0  0  0  0  0  0  0  0  0
    3.5290    2.0630   -0.6950 H   0  0  0  0  0  0  0  0  0  0  0  0
    3.0180    2.3940    0.9720 H   0  0  0  0  0  0  0  0  0  0  0  0
  1  2  2  0  0  0  0
  1  4  2  0  0  0  0
  1  5  1  0  0  0  0
  1  3  1  0  0  0  0
  3 26  1  0  0  0  0
  5  6  1  0  0  0  0
  5 27  1  0  0  0  0
  6  7  1  0  0  0  0
  6 10  1  0  0  0  0
  6 28  1  0  0  0  0
  7  8  1  0  0  0  0
  7 29  1  0  0  0  0
  7 30  1  0  0  0  0
  8  9  1  0  0  0  0
  8 31  1  0  0  0  0
  8 32  1  0  0  0  0
  9 13  1  0  0  0  0
  9 10  1  0  0  0  0
 10 11  1  0  0  0  0
 10 33  1  0  0  0  0
 11 12  2  0  0  0  0
 11 34  1  0  0  0  0
 13 15  1  0  0  0  0
 13 14  2  0  0  0  0
 15 16  1  0  0  0  0
 15 35  1  0  0  0  0
 16 17  1  0  0  0  0
 16 25  1  0  0  0  0
 16 36  1  0  0  0  0
 17 18  1  0  0  0  0
 17 37  1  0  0  0  0
 17 38  1  0  0  0  0
 18 19  1  0  0  0  0
 18 39  1  0  0  0  0
 18 40  1  0  0  0  0
 19 20  1  0  0  0  0
 19 41  1  0  0  0  0
 19 42  1  0  0  0  0
 20 21  1  0  0  0  0
 20 24  1  0  0  0  0
 21 22  1  0  0  0  0
 21 43  1  0  0  0  0
 21 44  1  0  0  0  0
 22 23  1  0  0  0  0
 22 45  1  0  0  0  0
 22 46  1  0  0  0  0
 23 47  1  0  0  0  0
 23 48  1  0  0  0  0
 24 25  1  0  0  0  0
 24 49  1  0  0  0  0
 24 50  1  0  0  0  0
 25 51  1  0  0  0  0
 25 52  1  0  0  0  0
M  END
> <OPENEYE_ISO_SMILES>
C1C[C@@H](CC[N@](C1)CCN)NC(=O)N2CC[C@H]([C@H]2C=O)NS(=O)(=O)O

> <OPENEYE_INCHI>
InChI=1S/C14H27N5O5S/c15-5-9-18-6-1-2-11(3-7-18)16-14(21)19-8-4-12(13(19)10-20)17-25(22,23)24/h10-13,17H,1-9,15H2,(H,16,21)(H,22,23,24)/t11-,12+,13+/m0/s1

> <OPENEYE_INCHIKEY>
FVHVSTMGNMLCNC-YNEHKIRRSA-N

> <FORMULA>
C14H27N5O5S

$$$$
