REMARK  16 active torsions:
REMARK  status: ('A' for Active; 'I' for Inactive)
REMARK    1  A    between atoms: O_1  and  C_2 
REMARK    2  A    between atoms: C_2  and  C_4 
REMARK    3  A    between atoms: C_4  and  C_5 
REMARK    4  A    between atoms: C_5  and  C_6 
REMARK    5  A    between atoms: C_6  and  C_7 
REMARK    6  A    between atoms: C_7  and  O_9 
REMARK    7  A    between atoms: O_9  and  C_10 
REMARK    8  A    between atoms: C_10  and  C_11 
REMARK    9  A    between atoms: C_11  and  S_12 
REMARK   10  A    between atoms: C_11  and  CA_16 
REMARK   11  A    between atoms: S_12  and  O_13 
REMARK   12  A    between atoms: CA_16  and  C_17 
REMARK   13  A    between atoms: CA_16  and  N_20 
REMARK   14  A    between atoms: C_17  and  O_18 
REMARK   15  A    between atoms: N_20  and  C_21 
REMARK   16  A    between atoms: C_22  and  C_23 
ROOT
HETATM    1  C   UNL     1      -1.227  -0.100   0.327  1.00  0.00     0.111 C 
HETATM    2  C   UNL     1      -1.236   0.082   1.847  1.00  0.00     0.037 C 
ENDROOT
BRANCH   1   3
HETATM    3  C   UNL     1       0.051   0.511  -0.252  1.00  0.00     0.206 C 
BRANCH   3   4
HETATM    4  O   UNL     1       1.208  -0.153   0.322  1.00  0.00    -0.320 OA
BRANCH   4   5
HETATM    5  C   UNL     1       2.445   0.220  -0.042  1.00  0.00     0.258 C 
HETATM    6  O   UNL     1       2.595   1.108  -0.847  1.00  0.00    -0.265 OA
BRANCH   5   7
HETATM    7  C   UNL     1       3.645  -0.469   0.554  1.00  0.00     0.111 C 
BRANCH   7   8
HETATM    8  C   UNL     1       4.923   0.141  -0.026  1.00  0.00     0.020 C 
BRANCH   8   9
HETATM    9  C   UNL     1       6.142  -0.559   0.579  1.00  0.00     0.110 C 
BRANCH   9  10
HETATM   10  C   UNL     1       7.401   0.043   0.009  1.00  0.00     0.139 C 
HETATM   11  O   UNL     1       7.330   0.939  -0.799  1.00  0.00    -0.650 OA
BRANCH  10  12
HETATM   12  O   UNL     1       8.600  -0.417   0.397  1.00  0.00    -0.776 OA
HETATM   13  H   UNL     1       9.408  -0.032   0.031  1.00  0.00     0.167 HD
ENDBRANCH  10  12
ENDBRANCH   9  10
ENDBRANCH   8   9
ENDBRANCH   7   8
ENDBRANCH   5   7
ENDBRANCH   4   5
ENDBRANCH   3   4
ENDBRANCH   1   3
BRANCH   1  14
HETATM   14  S   UNL     1      -1.286  -1.869  -0.070  1.00  0.00     0.164 S 
HETATM   15  O   UNL     1      -0.011  -2.450   0.165  1.00  0.00    -0.228 OA
BRANCH  14  16
HETATM   16  O   UNL     1      -1.268  -1.798  -1.591  1.00  0.00    -0.305 OA
HETATM   17  H   UNL     1      -1.297  -2.710  -1.913  1.00  0.00     0.230 HD
ENDBRANCH  14  16
ENDBRANCH   1  14
BRANCH   1  18
HETATM   18  CA  UNL     1      -2.446   0.600  -0.277  1.00  0.00     0.204 C 
BRANCH  18  19
HETATM   19  C   UNL     1      -2.335   2.086  -0.053  1.00  0.00     0.165 C 
HETATM   20  OXT UNL     1      -3.186   2.667   0.578  1.00  0.00    -0.648 OA
BRANCH  19  21
HETATM   21  O   UNL     1      -1.290   2.764  -0.554  1.00  0.00    -0.775 OA
HETATM   22  H   UNL     1      -1.219   3.718  -0.410  1.00  0.00     0.167 HD
ENDBRANCH  19  21
ENDBRANCH  18  19
BRANCH  18  23
HETATM   23  N   UNL     1      -3.664   0.099   0.364  1.00  0.00    -0.383 N 
HETATM   24  H   UNL     1      -3.624  -0.273   1.259  1.00  0.00     0.159 HD
BRANCH  23  25
HETATM   25  C   UNL     1      -4.855   0.156  -0.297  1.00  0.00     0.087 C 
HETATM   26  C   UNL     1      -5.982  -0.307   0.296  1.00  0.00     0.058 C 
BRANCH  26  27
HETATM   27  C   UNL     1      -7.207  -0.249  -0.384  1.00  0.00     0.260 C 
HETATM   28  O   UNL     1      -8.217  -0.664   0.148  1.00  0.00    -0.302 OA
ENDBRANCH  26  27
ENDBRANCH  23  25
ENDBRANCH  18  23
ENDBRANCH   1  18
TORSDOF 16
