SA2
  -OEChem-07282321083D

 43 42  0     1  0  0  0  0  0999 V2000
    8.6000   -0.4170    0.3970 O   0  0  0  0  0  0  0  0  0  0  0  0
    7.4010    0.0430    0.0090 C   0  0  0  0  0  0  0  0  0  0  0  0
    7.3300    0.9390   -0.7990 O   0  0  0  0  0  0  0  0  0  0  0  0
    6.1420   -0.5590    0.5790 C   0  0  0  0  0  0  0  0  0  0  0  0
    4.9230    0.1410   -0.0260 C   0  0  0  0  0  0  0  0  0  0  0  0
    3.6450   -0.4690    0.5540 C   0  0  0  0  0  0  0  0  0  0  0  0
    2.4450    0.2200   -0.0420 C   0  0  0  0  0  0  0  0  0  0  0  0
    2.5950    1.1080   -0.8470 O   0  0  0  0  0  0  0  0  0  0  0  0
    1.2080   -0.1530    0.3220 O   0  0  0  0  0  0  0  0  0  0  0  0
    0.0510    0.5110   -0.2520 C   0  0  0  0  0  0  0  0  0  0  0  0
   -1.2270   -0.1000    0.3270 C   0  0  1  0  0  0  0  0  0  0  0  0
   -1.2860   -1.8690   -0.0700 S   0  0  1  0  0  0  0  0  0  0  0  0
   -1.2680   -1.7980   -1.5910 O   0  0  0  0  0  0  0  0  0  0  0  0
   -0.0110   -2.4500    0.1650 O   0  0  0  0  0  0  0  0  0  0  0  0
   -1.2360    0.0820    1.8470 C   0  0  0  0  0  0  0  0  0  0  0  0
   -2.4460    0.6000   -0.2770 C   0  0  2  0  0  0  0  0  0  0  0  0
   -2.3350    2.0860   -0.0530 C   0  0  0  0  0  0  0  0  0  0  0  0
   -1.2900    2.7640   -0.5540 O   0  0  0  0  0  0  0  0  0  0  0  0
   -3.1860    2.6670    0.5780 O   0  0  0  0  0  0  0  0  0  0  0  0
   -3.6640    0.0990    0.3640 N   0  0  0  0  0  0  0  0  0  0  0  0
   -4.8550    0.1560   -0.2970 C   0  0  0  0  0  0  0  0  0  0  0  0
   -5.9820   -0.3070    0.2960 C   0  0  0  0  0  0  0  0  0  0  0  0
   -7.2070   -0.2490   -0.3840 C   0  0  0  0  0  0  0  0  0  0  0  0
   -8.2170   -0.6640    0.1480 O   0  0  0  0  0  0  0  0  0  0  0  0
    9.4080   -0.0320    0.0310 H   0  0  0  0  0  0  0  0  0  0  0  0
    6.1360   -0.4290    1.6610 H   0  0  0  0  0  0  0  0  0  0  0  0
    6.1060   -1.6220    0.3400 H   0  0  0  0  0  0  0  0  0  0  0  0
    4.9290    0.0110   -1.1080 H   0  0  0  0  0  0  0  0  0  0  0  0
    4.9590    1.2040    0.2130 H   0  0  0  0  0  0  0  0  0  0  0  0
    3.6390   -0.3400    1.6360 H   0  0  0  0  0  0  0  0  0  0  0  0
    3.6100   -1.5320    0.3150 H   0  0  0  0  0  0  0  0  0  0  0  0
    0.0570    0.3810   -1.3340 H   0  0  0  0  0  0  0  0  0  0  0  0
    0.0860    1.5740   -0.0130 H   0  0  0  0  0  0  0  0  0  0  0  0
   -1.2970   -2.7100   -1.9130 H   0  0  0  0  0  0  0  0  0  0  0  0
   -1.2000    1.1450    2.0860 H   0  0  0  0  0  0  0  0  0  0  0  0
   -2.1460   -0.3530    2.2590 H   0  0  0  0  0  0  0  0  0  0  0  0
   -0.3680   -0.4160    2.2770 H   0  0  0  0  0  0  0  0  0  0  0  0
   -2.4880    0.3960   -1.3470 H   0  0  0  0  0  0  0  0  0  0  0  0
   -1.2190    3.7180   -0.4100 H   0  0  0  0  0  0  0  0  0  0  0  0
   -3.6240   -0.2730    1.2590 H   0  0  0  0  0  0  0  0  0  0  0  0
   -4.9000    0.5700   -1.2930 H   0  0  0  0  0  0  0  0  0  0  0  0
   -5.9370   -0.7220    1.2930 H   0  0  0  0  0  0  0  0  0  0  0  0
   -7.2520    0.1650   -1.3800 H   0  0  0  0  0  0  0  0  0  0  0  0
  1  2  1  0  0  0  0
  1 25  1  0  0  0  0
  2  3  2  0  0  0  0
  2  4  1  0  0  0  0
  4  5  1  0  0  0  0
  4 26  1  0  0  0  0
  4 27  1  0  0  0  0
  5  6  1  0  0  0  0
  5 28  1  0  0  0  0
  5 29  1  0  0  0  0
  6  7  1  0  0  0  0
  6 30  1  0  0  0  0
  6 31  1  0  0  0  0
  7  8  2  0  0  0  0
  7  9  1  0  0  0  0
  9 10  1  0  0  0  0
 10 11  1  0  0  0  0
 10 32  1  0  0  0  0
 10 33  1  0  0  0  0
 11 12  1  0  0  0  0
 11 15  1  0  0  0  0
 11 16  1  0  0  0  0
 12 13  1  0  0  0  0
 12 14  2  0  0  0  0
 13 34  1  0  0  0  0
 15 35  1  0  0  0  0
 15 36  1  0  0  0  0
 15 37  1  0  0  0  0
 16 17  1  0  0  0  0
 16 20  1  0  0  0  0
 16 38  1  0  0  0  0
 17 18  1  0  0  0  0
 17 19  2  0  0  0  0
 18 39  1  0  0  0  0
 20 21  1  0  0  0  0
 20 40  1  0  0  0  0
 21 22  2  0  0  0  0
 21 41  1  0  0  0  0
 22 23  1  0  0  0  0
 22 42  1  0  0  0  0
 23 24  2  0  0  0  0
 23 43  1  0  0  0  0
M  END
> <OPENEYE_ISO_SMILES>
C[C@](COC(=O)CCCC(=O)O)([C@H](C(=O)O)N/C=C/C=O)[S@](=O)O

> <OPENEYE_INCHI>
InChI=1S/C13H19NO9S/c1-13(24(21)22,11(12(19)20)14-6-3-7-15)8-23-10(18)5-2-4-9(16)17/h3,6-7,11,14H,2,4-5,8H2,1H3,(H,16,17)(H,19,20)(H,21,22)/b6-3+/t11-,13-/m0/s1

> <OPENEYE_INCHIKEY>
ZLJAMSCQNNEARN-QDZHIHTESA-N

> <FORMULA>
C13H19NO9S

$$$$
