REMARK  8 active torsions:
REMARK  status: ('A' for Active; 'I' for Inactive)
REMARK    1  A    between atoms: O_1  and  C_2 
REMARK    2  A    between atoms: C_2  and  C_3 
REMARK    3  A    between atoms: C_3  and  C_11 
REMARK    4  A    between atoms: C_3  and  C_5 
REMARK    5  A    between atoms: CA_6  and  C_9 
REMARK    6  A    between atoms: C_7  and  C_14 
REMARK    7  A    between atoms: C_9  and  OXT_20 
REMARK    8  A    between atoms: C_11  and  O_12 
ROOT
HETATM    1  N   UNL     1      -0.548   1.280   0.437  1.00  0.00    -0.369 N 
HETATM    2  C   UNL     1      -1.160  -0.028   0.700  1.00  0.00     0.165 A 
HETATM    3  CA  UNL     1       0.808   1.224   0.151  1.00  0.00     0.119 A 
HETATM    4  C   UNL     1       1.429   0.035   0.141  1.00  0.00     0.042 A 
HETATM    5  S   UNL     1       0.222  -1.203   0.527  1.00  0.00    -0.103 SA
HETATM    6  H   UNL     1      -1.049   2.110   0.458  1.00  0.00     0.161 HD
ENDROOT
BRANCH   2   7
HETATM    7  C   UNL     1      -2.250  -0.327  -0.331  1.00  0.00     0.145 C 
BRANCH   7   8
HETATM    8  C   UNL     1      -3.329   0.721  -0.240  1.00  0.00     0.149 C 
HETATM    9  O   UNL     1      -3.235   1.615   0.567  1.00  0.00    -0.650 OA
BRANCH   8  10
HETATM   10  O   UNL     1      -4.393   0.661  -1.055  1.00  0.00    -0.776 OA
HETATM   11  H   UNL     1      -5.059   1.356  -0.959  1.00  0.00     0.167 HD
ENDBRANCH   8  10
ENDBRANCH   7   8
BRANCH   7  12
HETATM   12  C   UNL     1      -2.853  -1.705  -0.051  1.00  0.00     0.131 C 
HETATM   13  C   UNL     1      -3.540  -1.693   1.316  1.00  0.00     0.040 C 
BRANCH  12  14
HETATM   14  O   UNL     1      -3.811  -2.021  -1.063  1.00  0.00    -0.395 OA
HETATM   15  H   UNL     1      -4.234  -2.882  -0.949  1.00  0.00     0.210 HD
ENDBRANCH  12  14
ENDBRANCH   7  12
ENDBRANCH   2   7
BRANCH   3  16
HETATM   16  C   UNL     1       1.530   2.408  -0.128  1.00  0.00     0.194 C 
HETATM   17  O   UNL     1       2.693   2.343  -0.483  1.00  0.00    -0.645 OA
BRANCH  16  18
HETATM   18  OXT UNL     1       0.929   3.611  -0.002  1.00  0.00    -0.772 OA
HETATM   19  HXT UNL     1       1.501   4.361  -0.214  1.00  0.00     0.167 HD
ENDBRANCH  16  18
ENDBRANCH   3  16
BRANCH   4  20
HETATM   20  C   UNL     1       2.888  -0.205  -0.148  1.00  0.00     0.163 C 
HETATM   21  C   UNL     1       3.584  -0.837   1.084  1.00  0.00     0.039 C 
HETATM   22  C   UNL     1       4.778  -1.563   0.408  1.00  0.00     0.029 C 
HETATM   23  C   UNL     1       4.171  -2.007  -0.941  1.00  0.00     0.168 C 
HETATM   24  O   UNL     1       3.035  -1.173  -1.199  1.00  0.00    -0.381 OA
ENDBRANCH   4  20
TORSDOF 8
