SFR
  -OEChem-07282321083D

 37 38  0     1  0  0  0  0  0999 V2000
   -4.3930    0.6610   -1.0550 O   0  0  0  0  0  0  0  0  0  0  0  0
   -3.3290    0.7210   -0.2400 C   0  0  0  0  0  0  0  0  0  0  0  0
   -2.2500   -0.3270   -0.3310 C   0  0  1  0  0  0  0  0  0  0  0  0
   -0.5480    1.2800    0.4370 N   0  0  0  0  0  0  0  0  0  0  0  0
   -1.1600   -0.0280    0.7000 C   0  0  2  0  0  0  0  0  0  0  0  0
    0.8080    1.2240    0.1510 C   0  0  0  0  0  0  0  0  0  0  0  0
    1.4290    0.0350    0.1410 C   0  0  0  0  0  0  0  0  0  0  0  0
    0.2220   -1.2030    0.5270 S   0  0  0  0  0  0  0  0  0  0  0  0
    1.5300    2.4080   -0.1280 C   0  0  0  0  0  0  0  0  0  0  0  0
   -3.2350    1.6150    0.5670 O   0  0  0  0  0  0  0  0  0  0  0  0
   -2.8530   -1.7050   -0.0510 C   0  0  2  0  0  0  0  0  0  0  0  0
   -3.8110   -2.0210   -1.0630 O   0  0  0  0  0  0  0  0  0  0  0  0
   -3.5400   -1.6930    1.3160 C   0  0  0  0  0  0  0  0  0  0  0  0
    2.8880   -0.2050   -0.1480 C   0  0  1  0  0  0  0  0  0  0  0  0
    3.5840   -0.8370    1.0840 C   0  0  0  0  0  0  0  0  0  0  0  0
    4.7780   -1.5630    0.4080 C   0  0  0  0  0  0  0  0  0  0  0  0
    4.1710   -2.0070   -0.9410 C   0  0  0  0  0  0  0  0  0  0  0  0
    3.0350   -1.1730   -1.1990 O   0  0  0  0  0  0  0  0  0  0  0  0
    2.6930    2.3430   -0.4830 O   0  0  0  0  0  0  0  0  0  0  0  0
    0.9290    3.6110   -0.0020 O   0  0  0  0  0  0  0  0  0  0  0  0
   -5.0590    1.3560   -0.9590 H   0  0  0  0  0  0  0  0  0  0  0  0
   -1.8170   -0.3170   -1.3320 H   0  0  0  0  0  0  0  0  0  0  0  0
   -1.0490    2.1100    0.4580 H   0  0  0  0  0  0  0  0  0  0  0  0
   -1.5700   -0.0630    1.7090 H   0  0  0  0  0  0  0  0  0  0  0  0
   -2.0620   -2.4550   -0.0530 H   0  0  0  0  0  0  0  0  0  0  0  0
   -4.2340   -2.8820   -0.9490 H   0  0  0  0  0  0  0  0  0  0  0  0
   -3.8960   -2.6950    1.5530 H   0  0  0  0  0  0  0  0  0  0  0  0
   -2.8290   -1.3710    2.0770 H   0  0  0  0  0  0  0  0  0  0  0  0
   -4.3840   -1.0040    1.2920 H   0  0  0  0  0  0  0  0  0  0  0  0
    3.3770    0.7290   -0.4230 H   0  0  0  0  0  0  0  0  0  0  0  0
    3.9310   -0.0690    1.7750 H   0  0  0  0  0  0  0  0  0  0  0  0
    2.9260   -1.5460    1.5860 H   0  0  0  0  0  0  0  0  0  0  0  0
    5.6110   -0.8780    0.2510 H   0  0  0  0  0  0  0  0  0  0  0  0
    5.0900   -2.4270    0.9950 H   0  0  0  0  0  0  0  0  0  0  0  0
    4.9070   -1.8860   -1.7350 H   0  0  0  0  0  0  0  0  0  0  0  0
    3.8580   -3.0490   -0.8800 H   0  0  0  0  0  0  0  0  0  0  0  0
    1.5010    4.3610   -0.2140 H   0  0  0  0  0  0  0  0  0  0  0  0
 11 12  1  0  0  0  0
 11 13  1  0  0  0  0
  3 11  1  0  0  0  0
  7  8  1  0  0  0  0
  5  8  1  0  0  0  0
 14 15  1  0  0  0  0
 15 16  1  0  0  0  0
  7 14  1  0  0  0  0
 14 18  1  0  0  0  0
  6  7  2  0  0  0  0
  3  5  1  0  0  0  0
  2  3  1  0  0  0  0
 16 17  1  0  0  0  0
  4  5  1  0  0  0  0
 17 18  1  0  0  0  0
  4  6  1  0  0  0  0
  6  9  1  0  0  0  0
  2 10  2  0  0  0  0
  1  2  1  0  0  0  0
  9 19  2  0  0  0  0
  9 20  1  0  0  0  0
  1 21  1  0  0  0  0
  3 22  1  0  0  0  0
  4 23  1  0  0  0  0
  5 24  1  0  0  0  0
 11 25  1  0  0  0  0
 12 26  1  0  0  0  0
 13 27  1  0  0  0  0
 13 28  1  0  0  0  0
 13 29  1  0  0  0  0
 14 30  1  0  0  0  0
 15 31  1  0  0  0  0
 15 32  1  0  0  0  0
 16 33  1  0  0  0  0
 16 34  1  0  0  0  0
 17 35  1  0  0  0  0
 17 36  1  0  0  0  0
 20 37  1  0  0  0  0
M  END
> <OPENEYE_ISO_SMILES>
C[C@H]([C@H]([C@@H]1NC(=C(S1)[C@H]2CCCO2)C(=O)O)C(=O)O)O

> <OPENEYE_INCHI>
InChI=1S/C12H17NO6S/c1-5(14)7(11(15)16)10-13-8(12(17)18)9(20-10)6-3-2-4-19-6/h5-7,10,13-14H,2-4H2,1H3,(H,15,16)(H,17,18)/t5-,6-,7-,10-/m1/s1

> <OPENEYE_INCHIKEY>
CGJDLFMMMJEANA-DAGMQNCNSA-N

> <FORMULA>
C12H17NO6S

$$$$
