SM2
  -OEChem-07282321083D

 36 37  0     1  0  0  0  0  0999 V2000
   -0.6020    0.1580   -5.0500 C   0  0  0  0  0  0  0  0  0  0  0  0
   -0.1570   -0.5210   -6.1690 C   0  0  0  0  0  0  0  0  0  0  0  0
    1.1640   -0.7940   -6.2900 C   0  0  0  0  0  0  0  0  0  0  0  0
    1.8280   -0.0750   -4.7960 S   0  0  0  0  0  0  0  0  0  0  0  0
    0.2980    0.5400   -4.1120 C   0  0  0  0  0  0  0  0  0  0  0  0
    0.0670    1.2860   -2.8230 C   0  0  0  0  0  0  0  0  0  0  0  0
   -0.2010    0.3010   -1.7150 C   0  0  0  0  0  0  0  0  0  0  0  0
   -0.2050   -0.8880   -1.9480 O   0  0  0  0  0  0  0  0  0  0  0  0
   -0.4380    0.7430   -0.4630 N   0  0  0  0  0  0  0  0  0  0  0  0
   -0.6990   -0.2140    0.6130 C   0  0  2  0  0  0  0  0  0  0  0  0
   -2.2420   -0.4920    0.7020 B   0  0  0  0  0  0  0  0  0  0  0  0
   -3.1420    0.5730    0.9640 O   0  0  0  0  0  0  0  0  0  0  0  0
   -2.7370   -1.8110    0.5210 O   0  0  0  0  0  0  0  0  0  0  0  0
   -0.2160    0.3570    1.9210 C   0  0  0  0  0  0  0  0  0  0  0  0
    0.2210   -0.4860    2.9210 C   0  0  0  0  0  0  0  0  0  0  0  0
   -0.2180    1.7270    2.1190 C   0  0  0  0  0  0  0  0  0  0  0  0
    0.2230    2.2590    3.3170 C   0  0  0  0  0  0  0  0  0  0  0  0
    0.6690    1.4270    4.3230 C   0  0  0  0  0  0  0  0  0  0  0  0
    0.6730    0.0450    4.1300 C   0  0  0  0  0  0  0  0  0  0  0  0
    1.1490   -0.8520    5.2030 C   0  0  0  0  0  0  0  0  0  0  0  0
    1.1510   -2.0540    5.0330 O   0  0  0  0  0  0  0  0  0  0  0  0
    1.5800   -0.3360    6.3710 O   0  0  0  0  0  0  0  0  0  0  0  0
   -1.6500    0.3880   -4.9290 H   0  0  0  0  0  0  0  0  0  0  0  0
   -0.8530   -0.8320   -6.9340 H   0  0  0  0  0  0  0  0  0  0  0  0
    1.6820   -1.3120   -7.0840 H   0  0  0  0  0  0  0  0  0  0  0  0
   -0.7890    1.9490   -2.9360 H   0  0  0  0  0  0  0  0  0  0  0  0
    0.9530    1.8730   -2.5800 H   0  0  0  0  0  0  0  0  0  0  0  0
   -0.4340    1.6950   -0.2760 H   0  0  0  0  0  0  0  0  0  0  0  0
   -0.1730   -1.1460    0.4070 H   0  0  0  0  0  0  0  0  0  0  0  0
   -2.6080    1.3740    1.0540 H   0  0  0  0  0  0  0  0  0  0  0  0
   -1.9700   -2.3770    0.3560 H   0  0  0  0  0  0  0  0  0  0  0  0
    0.2210   -1.5550    2.7650 H   0  0  0  0  0  0  0  0  0  0  0  0
   -0.5660    2.3820    1.3350 H   0  0  0  0  0  0  0  0  0  0  0  0
    0.2200    3.3290    3.4640 H   0  0  0  0  0  0  0  0  0  0  0  0
    1.0140    1.8450    5.2570 H   0  0  0  0  0  0  0  0  0  0  0  0
    1.8920   -0.9230    7.0730 H   0  0  0  0  0  0  0  0  0  0  0  0
  1  2  1  0  0  0  0
  1  5  2  0  0  0  0
  1 23  1  0  0  0  0
  2  3  2  0  0  0  0
  2 24  1  0  0  0  0
  3  4  1  0  0  0  0
  3 25  1  0  0  0  0
  4  5  1  0  0  0  0
  5  6  1  0  0  0  0
  6  7  1  0  0  0  0
  6 26  1  0  0  0  0
  6 27  1  0  0  0  0
  7  8  2  0  0  0  0
  7  9  1  0  0  0  0
  9 10  1  0  0  0  0
  9 28  1  0  0  0  0
 10 11  1  0  0  0  0
 10 14  1  0  0  0  0
 10 29  1  0  0  0  0
 11 12  1  0  0  0  0
 11 13  1  0  0  0  0
 12 30  1  0  0  0  0
 13 31  1  0  0  0  0
 14 15  2  0  0  0  0
 14 16  1  0  0  0  0
 15 19  1  0  0  0  0
 15 32  1  0  0  0  0
 16 17  2  0  0  0  0
 16 33  1  0  0  0  0
 17 18  1  0  0  0  0
 17 34  1  0  0  0  0
 18 19  2  0  0  0  0
 18 35  1  0  0  0  0
 19 20  1  0  0  0  0
 20 21  2  0  0  0  0
 20 22  1  0  0  0  0
 22 36  1  0  0  0  0
M  END
> <OPENEYE_ISO_SMILES>
B([C@H](c1cccc(c1)C(=O)O)NC(=O)Cc2cccs2)(O)O

> <OPENEYE_INCHI>
InChI=1S/C14H14BNO5S/c17-12(8-11-5-2-6-22-11)16-13(15(20)21)9-3-1-4-10(7-9)14(18)19/h1-7,13,20-21H,8H2,(H,16,17)(H,18,19)/t13-/m0/s1

> <OPENEYE_INCHIKEY>
HQLQTGGLHBYZSA-ZDUSSCGKSA-N

> <FORMULA>
C14H14BNO5S

$$$$
