REMARK  9 active torsions:
REMARK  status: ('A' for Active; 'I' for Inactive)
REMARK    1  A    between atoms: C_5  and  C_6 
REMARK    2  A    between atoms: C_6  and  C_7 
REMARK       I    between atoms: C_7  and  N_9 
REMARK    3  A    between atoms: N_9  and  C_10 
REMARK    4  A    between atoms: C_10  and  B_11 
REMARK    5  A    between atoms: C_10  and  C_14 
REMARK    6  A    between atoms: B_11  and  O_12 
REMARK    7  A    between atoms: B_11  and  O_13 
REMARK    8  A    between atoms: C_19  and  C_20 
REMARK    9  A    between atoms: C_20  and  O_22 
ROOT
HETATM    1  C   UNL     1      -0.699  -0.214   0.613  1.00  0.00     0.143 C 
ENDROOT
BRANCH   1   2
HETATM    2  N   UNL     1      -0.438   0.743  -0.463  1.00  0.00    -0.355 N 
HETATM    3  C   UNL     1      -0.201   0.301  -1.715  1.00  0.00     0.222 C 
HETATM    4  O   UNL     1      -0.205  -0.888  -1.948  1.00  0.00    -0.273 OA
HETATM    5  H   UNL     1      -0.434   1.695  -0.276  1.00  0.00     0.162 HD
BRANCH   3   6
HETATM    6  C   UNL     1       0.067   1.286  -2.823  1.00  0.00     0.148 C 
BRANCH   6   7
HETATM    7  C   UNL     1       0.298   0.540  -4.112  1.00  0.00    -0.009 A 
HETATM    8  C   UNL     1      -0.602   0.158  -5.050  1.00  0.00     0.015 A 
HETATM    9  C   UNL     1      -0.157  -0.521  -6.169  1.00  0.00     0.008 A 
HETATM   10  C   UNL     1       1.164  -0.794  -6.290  1.00  0.00     0.050 A 
HETATM   11  S   UNL     1       1.828  -0.075  -4.796  1.00  0.00    -0.106 SA
ENDBRANCH   6   7
ENDBRANCH   3   6
ENDBRANCH   1   2
BRANCH   1  12
HETATM   12  B   UNL     1      -2.242  -0.492   0.702  1.00  0.00     0.519 B 
BRANCH  12  13
HETATM   13  O   UNL     1      -3.142   0.573   0.964  1.00  0.00    -0.436 OA
HETATM   14  H   UNL     1      -2.608   1.374   1.054  1.00  0.00     0.184 HD
ENDBRANCH  12  13
BRANCH  12  15
HETATM   15  O   UNL     1      -2.737  -1.811   0.521  1.00  0.00    -0.436 OA
HETATM   16  H   UNL     1      -1.970  -2.377   0.356  1.00  0.00     0.184 HD
ENDBRANCH  12  15
ENDBRANCH   1  12
BRANCH   1  17
HETATM   17  C   UNL     1      -0.216   0.357   1.921  1.00  0.00    -0.038 A 
HETATM   18  C   UNL     1       0.221  -0.486   2.921  1.00  0.00     0.026 A 
HETATM   19  C   UNL     1       0.673   0.045   4.130  1.00  0.00     0.038 A 
HETATM   20  C   UNL     1       0.669   1.427   4.323  1.00  0.00     0.018 A 
HETATM   21  C   UNL     1       0.223   2.259   3.317  1.00  0.00     0.002 A 
HETATM   22  C   UNL     1      -0.218   1.727   2.119  1.00  0.00     0.008 A 
BRANCH  19  23
HETATM   23  C   UNL     1       1.149  -0.852   5.203  1.00  0.00     0.176 C 
HETATM   24  O   UNL     1       1.151  -2.054   5.033  1.00  0.00    -0.646 OA
BRANCH  23  25
HETATM   25  O   UNL     1       1.580  -0.336   6.371  1.00  0.00    -0.773 OA
HETATM   26  H   UNL     1       1.892  -0.923   7.073  1.00  0.00     0.167 HD
ENDBRANCH  23  25
ENDBRANCH  19  23
ENDBRANCH   1  17
TORSDOF 9
