REMARK  7 active torsions:
REMARK  status: ('A' for Active; 'I' for Inactive)
REMARK    1  A    between atoms: C_5  and  C_6 
REMARK    2  A    between atoms: C_6  and  C_7 
REMARK       I    between atoms: C_7  and  N_9 
REMARK    3  A    between atoms: N_9  and  C_10 
REMARK    4  A    between atoms: C_10  and  B_11 
REMARK    5  A    between atoms: C_10  and  C_14 
REMARK    6  A    between atoms: B_11  and  O_12 
REMARK    7  A    between atoms: B_11  and  O_13 
ROOT
HETATM    1  C   UNL     1      -0.458  -0.374   1.525  1.00  0.00     0.143 C 
ENDROOT
BRANCH   1   2
HETATM    2  N   UNL     1       0.076   0.540   0.514  1.00  0.00    -0.355 N 
HETATM    3  C   UNL     1      -0.016   0.229  -0.793  1.00  0.00     0.222 C 
HETATM    4  O   UNL     1      -0.543  -0.809  -1.133  1.00  0.00    -0.273 OA
HETATM    5  H   UNL     1       0.498   1.371   0.785  1.00  0.00     0.162 HD
BRANCH   3   6
HETATM    6  C   UNL     1       0.534   1.170  -1.833  1.00  0.00     0.148 C 
BRANCH   6   7
HETATM    7  C   UNL     1       0.304   0.592  -3.206  1.00  0.00    -0.009 A 
HETATM    8  C   UNL     1      -0.759   0.749  -4.031  1.00  0.00     0.015 A 
HETATM    9  C   UNL     1      -0.751   0.119  -5.262  1.00  0.00     0.008 A 
HETATM   10  C   UNL     1       0.314  -0.645  -5.602  1.00  0.00     0.050 A 
HETATM   11  S   UNL     1       1.359  -0.483  -4.164  1.00  0.00    -0.106 SA
ENDBRANCH   6   7
ENDBRANCH   3   6
ENDBRANCH   1   2
BRANCH   1  12
HETATM   12  B   UNL     1      -1.958  -0.013   1.815  1.00  0.00     0.519 B 
BRANCH  12  13
HETATM   13  O   UNL     1      -2.296   1.275   2.306  1.00  0.00    -0.436 OA
HETATM   14  H   UNL     1      -1.469   1.768   2.389  1.00  0.00     0.184 HD
ENDBRANCH  12  13
BRANCH  12  15
HETATM   15  O   UNL     1      -2.977  -0.976   1.588  1.00  0.00    -0.436 OA
HETATM   16  H   UNL     1      -2.539  -1.773   1.259  1.00  0.00     0.184 HD
ENDBRANCH  12  15
ENDBRANCH   1  12
BRANCH   1  17
HETATM   17  C   UNL     1       0.344  -0.245   2.794  1.00  0.00    -0.039 A 
HETATM   18  C   UNL     1      -0.256  -0.475   4.018  1.00  0.00     0.008 A 
HETATM   19  C   UNL     1       0.479  -0.357   5.182  1.00  0.00     0.001 A 
HETATM   20  C   UNL     1       1.816  -0.009   5.122  1.00  0.00     0.000 A 
HETATM   21  C   UNL     1       2.416   0.219   3.898  1.00  0.00     0.001 A 
HETATM   22  C   UNL     1       1.681   0.097   2.734  1.00  0.00     0.008 A 
ENDBRANCH   1  17
TORSDOF 7
