SM3
  -OEChem-07282321083D

 33 34  0     1  0  0  0  0  0999 V2000
   -0.7590    0.7490   -4.0310 C   0  0  0  0  0  0  0  0  0  0  0  0
   -0.7510    0.1190   -5.2620 C   0  0  0  0  0  0  0  0  0  0  0  0
    0.3140   -0.6450   -5.6020 C   0  0  0  0  0  0  0  0  0  0  0  0
    1.3590   -0.4830   -4.1640 S   0  0  0  0  0  0  0  0  0  0  0  0
    0.3040    0.5920   -3.2060 C   0  0  0  0  0  0  0  0  0  0  0  0
    0.5340    1.1700   -1.8330 C   0  0  0  0  0  0  0  0  0  0  0  0
   -0.0160    0.2290   -0.7930 C   0  0  0  0  0  0  0  0  0  0  0  0
   -0.5430   -0.8090   -1.1330 O   0  0  0  0  0  0  0  0  0  0  0  0
    0.0760    0.5400    0.5140 N   0  0  0  0  0  0  0  0  0  0  0  0
   -0.4580   -0.3740    1.5250 C   0  0  2  0  0  0  0  0  0  0  0  0
   -1.9580   -0.0130    1.8150 B   0  0  0  0  0  0  0  0  0  0  0  0
   -2.2960    1.2750    2.3060 O   0  0  0  0  0  0  0  0  0  0  0  0
   -2.9770   -0.9760    1.5880 O   0  0  0  0  0  0  0  0  0  0  0  0
    0.3440   -0.2450    2.7940 C   0  0  0  0  0  0  0  0  0  0  0  0
   -0.2560   -0.4750    4.0180 C   0  0  0  0  0  0  0  0  0  0  0  0
    1.6810    0.0970    2.7340 C   0  0  0  0  0  0  0  0  0  0  0  0
    2.4160    0.2190    3.8980 C   0  0  0  0  0  0  0  0  0  0  0  0
    1.8160   -0.0090    5.1220 C   0  0  0  0  0  0  0  0  0  0  0  0
    0.4790   -0.3570    5.1820 C   0  0  0  0  0  0  0  0  0  0  0  0
   -1.5960    1.3640   -3.7360 H   0  0  0  0  0  0  0  0  0  0  0  0
   -1.5840    0.2310   -5.9400 H   0  0  0  0  0  0  0  0  0  0  0  0
    0.4870   -1.2060   -6.5090 H   0  0  0  0  0  0  0  0  0  0  0  0
    0.0290    2.1330   -1.7560 H   0  0  0  0  0  0  0  0  0  0  0  0
    1.6030    1.3060   -1.6710 H   0  0  0  0  0  0  0  0  0  0  0  0
    0.4980    1.3710    0.7850 H   0  0  0  0  0  0  0  0  0  0  0  0
   -0.3950   -1.3980    1.1580 H   0  0  0  0  0  0  0  0  0  0  0  0
   -1.4690    1.7680    2.3890 H   0  0  0  0  0  0  0  0  0  0  0  0
   -2.5390   -1.7730    1.2590 H   0  0  0  0  0  0  0  0  0  0  0  0
   -1.3000   -0.7470    4.0640 H   0  0  0  0  0  0  0  0  0  0  0  0
    2.1500    0.2770    1.7780 H   0  0  0  0  0  0  0  0  0  0  0  0
    3.4600    0.4920    3.8520 H   0  0  0  0  0  0  0  0  0  0  0  0
    2.3910    0.0830    6.0320 H   0  0  0  0  0  0  0  0  0  0  0  0
    0.0100   -0.5370    6.1380 H   0  0  0  0  0  0  0  0  0  0  0  0
  1  2  1  0  0  0  0
  1  5  2  0  0  0  0
  1 20  1  0  0  0  0
  2  3  2  0  0  0  0
  2 21  1  0  0  0  0
  3  4  1  0  0  0  0
  3 22  1  0  0  0  0
  4  5  1  0  0  0  0
  5  6  1  0  0  0  0
  6  7  1  0  0  0  0
  6 23  1  0  0  0  0
  6 24  1  0  0  0  0
  7  8  2  0  0  0  0
  7  9  1  0  0  0  0
  9 10  1  0  0  0  0
  9 25  1  0  0  0  0
 10 11  1  0  0  0  0
 10 14  1  0  0  0  0
 10 26  1  0  0  0  0
 11 12  1  0  0  0  0
 11 13  1  0  0  0  0
 12 27  1  0  0  0  0
 13 28  1  0  0  0  0
 14 15  2  0  0  0  0
 14 16  1  0  0  0  0
 15 19  1  0  0  0  0
 15 29  1  0  0  0  0
 16 17  2  0  0  0  0
 16 30  1  0  0  0  0
 17 18  1  0  0  0  0
 17 31  1  0  0  0  0
 18 19  2  0  0  0  0
 18 32  1  0  0  0  0
 19 33  1  0  0  0  0
M  END
> <OPENEYE_ISO_SMILES>
B([C@H](c1ccccc1)NC(=O)Cc2cccs2)(O)O

> <OPENEYE_INCHI>
InChI=1S/C13H14BNO3S/c16-12(9-11-7-4-8-19-11)15-13(14(17)18)10-5-2-1-3-6-10/h1-8,13,17-18H,9H2,(H,15,16)/t13-/m0/s1

> <OPENEYE_INCHIKEY>
LGJCDEZMANATFA-ZDUSSCGKSA-N

> <FORMULA>
C13H14BNO3S

$$$$
