SM4
  -OEChem-07282321083D

 40 41  0     1  0  0  0  0  0999 V2000
   85.4090    6.8000   26.7730 O   0  0  0  0  0  0  0  0  0  0  0  0
   84.6650    7.6490   26.2210 C   0  0  0  0  0  0  0  0  0  0  0  0
   85.0310    8.2720   25.1930 O   0  0  0  0  0  0  0  0  0  0  0  0
   83.3250    7.9420   26.7900 C   0  0  0  0  0  0  0  0  0  0  0  0
   82.5160    7.0070   27.3090 C   0  0  0  0  0  0  0  0  0  0  0  0
   81.1980    7.3780   27.8980 C   0  0  0  0  0  0  0  0  0  0  0  0
   80.3520    6.4080   28.4470 C   0  0  0  0  0  0  0  0  0  0  0  0
   80.7830    8.7110   27.9200 C   0  0  0  0  0  0  0  0  0  0  0  0
   79.5510    9.0720   28.4660 C   0  0  0  0  0  0  0  0  0  0  0  0
   78.7120    8.1050   29.0040 C   0  0  0  0  0  0  0  0  0  0  0  0
   79.1100    6.7760   28.9990 C   0  0  0  0  0  0  0  0  0  0  0  0
   78.2060    5.7530   29.5810 C   0  0  1  0  0  0  0  0  0  0  0  0
   77.6810    4.8020   28.3900 B   0  0  0  0  0  0  0  0  0  0  0  0
   77.1390    5.5000   27.1290 O   0  0  0  0  0  0  0  0  0  0  0  0
   78.5750    3.6130   28.0490 O   0  0  0  0  0  0  0  0  0  0  0  0
   79.0040    5.0100   30.5490 N   0  0  0  0  0  0  0  0  0  0  0  0
   79.4100    5.5280   31.7160 C   0  0  0  0  0  0  0  0  0  0  0  0
   79.1830    6.6640   32.1200 O   0  0  0  0  0  0  0  0  0  0  0  0
   80.2570    4.5950   32.5450 C   0  0  0  0  0  0  0  0  0  0  0  0
   81.6650    5.0320   32.2440 C   0  0  0  0  0  0  0  0  0  0  0  0
   82.3420    5.4150   31.0890 C   0  0  0  0  0  0  0  0  0  0  0  0
   83.6670    5.7500   31.3340 C   0  0  0  0  0  0  0  0  0  0  0  0
   84.0750    5.6630   32.6640 C   0  0  0  0  0  0  0  0  0  0  0  0
   82.7110    5.1280   33.5990 S   0  0  0  0  0  0  0  0  0  0  0  0
   86.2270    6.7360   26.2940 H   0  0  0  0  0  0  0  0  0  0  0  0
   82.9830    8.9660   26.7860 H   0  0  0  0  0  0  0  0  0  0  0  0
   82.8230    5.9720   27.3000 H   0  0  0  0  0  0  0  0  0  0  0  0
   80.6530    5.3710   28.4470 H   0  0  0  0  0  0  0  0  0  0  0  0
   81.4260    9.4750   27.5080 H   0  0  0  0  0  0  0  0  0  0  0  0
   79.2480   10.1090   28.4700 H   0  0  0  0  0  0  0  0  0  0  0  0
   77.7570    8.3850   29.4230 H   0  0  0  0  0  0  0  0  0  0  0  0
   77.3250    6.1880   30.0760 H   0  0  0  0  0  0  0  0  0  0  0  0
   77.0270    6.4270   27.3030 H   0  0  0  0  0  0  0  0  0  0  0  0
   78.7610    3.6130   27.1170 H   0  0  0  0  0  0  0  0  0  0  0  0
   79.2610    4.0680   30.3310 H   0  0  0  0  0  0  0  0  0  0  0  0
   80.0270    4.6880   33.6170 H   0  0  0  0  0  0  0  0  0  0  0  0
   80.0810    3.5360   32.3060 H   0  0  0  0  0  0  0  0  0  0  0  0
   81.8870    5.4480   30.1100 H   0  0  0  0  0  0  0  0  0  0  0  0
   84.3380    6.0580   30.5460 H   0  0  0  0  0  0  0  0  0  0  0  0
   85.0600    5.8870   33.0450 H   0  0  0  0  0  0  0  0  0  0  0  0
  1  2  1  0  0  0  0
  1 25  1  0  0  0  0
  2  3  2  0  0  0  0
  2  4  1  0  0  0  0
  4  5  2  0  0  0  0
  4 26  1  0  0  0  0
  5  6  1  0  0  0  0
  5 27  1  0  0  0  0
  6  8  2  0  0  0  0
  6  7  1  0  0  0  0
  7 11  2  0  0  0  0
  7 28  1  0  0  0  0
  8  9  1  0  0  0  0
  8 29  1  0  0  0  0
  9 10  2  0  0  0  0
  9 30  1  0  0  0  0
 10 11  1  0  0  0  0
 10 31  1  0  0  0  0
 11 12  1  0  0  0  0
 12 13  1  0  0  0  0
 12 16  1  0  0  0  0
 12 32  1  0  0  0  0
 13 14  1  0  0  0  0
 13 15  1  0  0  0  0
 14 33  1  0  0  0  0
 15 34  1  0  0  0  0
 16 17  1  0  0  0  0
 16 35  1  0  0  0  0
 17 18  2  0  0  0  0
 17 19  1  0  0  0  0
 19 20  1  0  0  0  0
 19 36  1  0  0  0  0
 19 37  1  0  0  0  0
 20 21  2  0  0  0  0
 20 24  1  0  0  0  0
 21 22  1  0  0  0  0
 21 38  1  0  0  0  0
 22 23  2  0  0  0  0
 22 39  1  0  0  0  0
 23 24  1  0  0  0  0
 23 40  1  0  0  0  0
M  END
> <OPENEYE_ISO_SMILES>
B([C@H](c1cccc(c1)/C=C/C(=O)O)NC(=O)Cc2cccs2)(O)O

> <OPENEYE_INCHI>
InChI=1S/C16H16BNO5S/c19-14(10-13-5-2-8-24-13)18-16(17(22)23)12-4-1-3-11(9-12)6-7-15(20)21/h1-9,16,22-23H,10H2,(H,18,19)(H,20,21)/b7-6+/t16-/m0/s1

> <OPENEYE_INCHIKEY>
ZDYRJUZJSKGVDJ-MOEXGYKKSA-N

> <FORMULA>
C16H16BNO5S

$$$$
