SR3
  -OEChem-07282321083D

 37 36  0     1  0  0  0  0  0999 V2000
   -2.1030   -1.9420    0.7200 C   0  0  0  0  0  0  0  0  0  0  0  0
   -1.8290    0.3500   -0.0310 N   0  0  0  0  0  0  0  0  0  0  0  0
   -2.6500   -2.1750   -0.3320 O   0  0  0  0  0  0  0  0  0  0  0  0
   -1.3220   -0.6650    0.8960 C   0  0  2  0  0  0  0  0  0  0  0  0
    0.1570   -0.9280    0.6050 C   0  0  1  0  0  0  0  0  0  0  0  0
    0.9410    0.3450    0.7980 C   0  0  0  0  0  0  0  0  0  0  0  0
    0.6820   -2.0000    1.5610 C   0  0  0  0  0  0  0  0  0  0  0  0
    5.1460    2.6290    0.1500 N   0  0  0  0  0  0  0  0  0  0  0  0
   -4.8990    3.6790   -0.9540 O   0  0  0  0  0  0  0  0  0  0  0  0
    4.6890    0.5450   -0.4600 O   0  0  0  0  0  0  0  0  0  0  0  0
    1.9850   -1.6160   -0.8840 O   0  0  0  0  0  0  0  0  0  0  0  0
    0.5150   -2.0220   -2.6690 O   0  0  0  0  0  0  0  0  0  0  0  0
   -4.4780    2.8370   -0.1850 C   0  0  0  0  0  0  0  0  0  0  0  0
   -3.3730    2.0520   -0.5420 C   0  0  0  0  0  0  0  0  0  0  0  0
   -2.9040    1.1130    0.3160 C   0  0  0  0  0  0  0  0  0  0  0  0
    2.9060    1.6770    0.5930 C   0  0  0  0  0  0  0  0  0  0  0  0
    4.3100    1.5750    0.0560 C   0  0  0  0  0  0  0  0  0  0  0  0
    0.3430   -1.4980   -1.1030 S   0  0  0  0  0  0  0  0  0  0  0  0
    0.4240    1.2970    1.3330 O   0  0  0  0  0  0  0  0  0  0  0  0
    2.2120    0.4210    0.3740 O   0  0  0  0  0  0  0  0  0  0  0  0
   -2.1960   -2.8170    1.7330 O   0  0  0  0  0  0  0  0  0  0  0  0
   -1.4010    0.4780   -0.8920 H   0  0  0  0  0  0  0  0  0  0  0  0
   -1.4330   -0.3100    1.9200 H   0  0  0  0  0  0  0  0  0  0  0  0
    0.1150   -2.9210    1.4210 H   0  0  0  0  0  0  0  0  0  0  0  0
    1.7360   -2.1880    1.3540 H   0  0  0  0  0  0  0  0  0  0  0  0
    0.5700   -1.6570    2.5890 H   0  0  0  0  0  0  0  0  0  0  0  0
    6.0500    2.5640   -0.1950 H   0  0  0  0  0  0  0  0  0  0  0  0
    4.8420    3.4530    0.5630 H   0  0  0  0  0  0  0  0  0  0  0  0
    2.4690   -0.8080   -1.1010 H   0  0  0  0  0  0  0  0  0  0  0  0
   -0.3180   -2.0830   -3.1560 H   0  0  0  0  0  0  0  0  0  0  0  0
   -4.9560    2.6940    0.7730 H   0  0  0  0  0  0  0  0  0  0  0  0
   -2.8960    2.1950   -1.5000 H   0  0  0  0  0  0  0  0  0  0  0  0
   -3.3810    0.9700    1.2740 H   0  0  0  0  0  0  0  0  0  0  0  0
    2.9400    1.8920    1.6610 H   0  0  0  0  0  0  0  0  0  0  0  0
    2.3770    2.4790    0.0770 H   0  0  0  0  0  0  0  0  0  0  0  0
   -2.7080   -3.6220    1.5730 H   0  0  0  0  0  0  0  0  0  0  0  0
   -0.4860   -2.6040   -0.8240 H   0  0  0  0  0  0  0  0  0  0  0  0
  1  3  2  0  0  0  0
  1  4  1  0  0  0  0
  1 21  1  0  0  0  0
  2  4  1  0  0  0  0
  2 15  1  0  0  0  0
  2 22  1  0  0  0  0
  4  5  1  0  0  0  0
  4 23  1  0  0  0  0
  5 18  1  0  0  0  0
  5  6  1  0  0  0  0
  5  7  1  0  0  0  0
  6 19  2  0  0  0  0
  6 20  1  0  0  0  0
  7 24  1  0  0  0  0
  7 25  1  0  0  0  0
  7 26  1  0  0  0  0
  8 17  1  0  0  0  0
  8 27  1  0  0  0  0
  8 28  1  0  0  0  0
  9 13  2  0  0  0  0
 10 17  2  0  0  0  0
 11 18  1  0  0  0  0
 11 29  1  0  0  0  0
 12 18  1  0  0  0  0
 12 30  1  0  0  0  0
 13 14  1  0  0  0  0
 13 31  1  0  0  0  0
 14 15  2  0  0  0  0
 14 32  1  0  0  0  0
 15 33  1  0  0  0  0
 16 17  1  0  0  0  0
 16 20  1  0  0  0  0
 16 34  1  0  0  0  0
 16 35  1  0  0  0  0
 21 36  1  0  0  0  0
 18 37  1  0  0  0  0
M  END
> <OPENEYE_ISO_SMILES>
C[C@@]([C@H](C(=O)O)N/C=C/C=O)(C(=O)OCC(=O)N)S(O)O

> <OPENEYE_INCHI>
InChI=1S/C10H16N2O8S/c1-10(21(18)19,9(17)20-5-6(11)14)7(8(15)16)12-3-2-4-13/h2-4,7,12,18-19,21H,5H2,1H3,(H2,11,14)(H,15,16)/b3-2+/t7-,10+/m0/s1

> <OPENEYE_INCHIKEY>
MGCULWRADYDHMU-SSWUGZLXSA-N

> <FORMULA>
C10H16N2O8S

$$$$
