REMARK  13 active torsions:
REMARK  status: ('A' for Active; 'I' for Inactive)
REMARK    1  A    between atoms: C_1  and  CA_4 
REMARK    2  A    between atoms: C_1  and  OXT_21 
REMARK    3  A    between atoms: N_2  and  CA_4 
REMARK    4  A    between atoms: N_2  and  C_15 
REMARK    5  A    between atoms: CA_4  and  C_5 
REMARK    6  A    between atoms: C_5  and  S_18 
REMARK    7  A    between atoms: C_5  and  C_6 
REMARK    8  A    between atoms: C_6  and  O_20 
REMARK       I    between atoms: N_8  and  C_17 
REMARK    9  A    between atoms: O_11  and  S_18 
REMARK   10  A    between atoms: O_12  and  S_18 
REMARK   11  A    between atoms: C_13  and  C_14 
REMARK   12  A    between atoms: C_16  and  C_17 
REMARK   13  A    between atoms: C_16  and  O_20 
ROOT
HETATM    1  C   UNL     1       0.157  -0.928   0.605  1.00  0.00     0.147 C 
HETATM    2  C   UNL     1       0.682  -2.000   1.561  1.00  0.00     0.043 C 
ENDROOT
BRANCH   1   3
HETATM    3  CA  UNL     1      -1.322  -0.665   0.896  1.00  0.00     0.210 C 
BRANCH   3   4
HETATM    4  C   UNL     1      -2.103  -1.942   0.720  1.00  0.00     0.165 C 
HETATM    5  O   UNL     1      -2.650  -2.175  -0.332  1.00  0.00    -0.648 OA
BRANCH   4   6
HETATM    6  OXT UNL     1      -2.196  -2.817   1.733  1.00  0.00    -0.775 OA
HETATM    7  HXT UNL     1      -2.708  -3.622   1.573  1.00  0.00     0.167 HD
ENDBRANCH   4   6
ENDBRANCH   3   4
BRANCH   3   8
HETATM    8  N   UNL     1      -1.829   0.350  -0.031  1.00  0.00    -0.383 N 
HETATM    9  H   UNL     1      -1.401   0.478  -0.892  1.00  0.00     0.159 HD
BRANCH   8  10
HETATM   10  C   UNL     1      -2.904   1.113   0.316  1.00  0.00     0.087 C 
HETATM   11  C   UNL     1      -3.373   2.052  -0.542  1.00  0.00     0.058 C 
BRANCH  11  12
HETATM   12  C   UNL     1      -4.478   2.837  -0.185  1.00  0.00     0.260 C 
HETATM   13  O   UNL     1      -4.899   3.679  -0.954  1.00  0.00    -0.302 OA
ENDBRANCH  11  12
ENDBRANCH   8  10
ENDBRANCH   3   8
ENDBRANCH   1   3
BRANCH   1  14
HETATM   14  S   UNL     1       0.343  -1.498  -1.103  1.00  0.00    -0.029 S 
HETATM   15  H   UNL     1      -0.486  -2.604  -0.824  1.00  0.00     0.138 HD
BRANCH  14  16
HETATM   16  O   UNL     1       1.985  -1.616  -0.884  1.00  0.00    -0.329 OA
HETATM   17  H   UNL     1       2.469  -0.808  -1.101  1.00  0.00     0.228 HD
ENDBRANCH  14  16
BRANCH  14  18
HETATM   18  O   UNL     1       0.515  -2.022  -2.669  1.00  0.00    -0.329 OA
HETATM   19  H   UNL     1      -0.318  -2.083  -3.156  1.00  0.00     0.228 HD
ENDBRANCH  14  18
ENDBRANCH   1  14
BRANCH   1  20
HETATM   20  C   UNL     1       0.941   0.345   0.798  1.00  0.00     0.282 C 
HETATM   21  O   UNL     1       0.424   1.297   1.333  1.00  0.00    -0.263 OA
BRANCH  20  22
HETATM   22  O   UNL     1       2.212   0.421   0.374  1.00  0.00    -0.311 OA
BRANCH  22  23
HETATM   23  C   UNL     1       2.906   1.677   0.593  1.00  0.00     0.281 C 
BRANCH  23  24
HETATM   24  C   UNL     1       4.310   1.575   0.056  1.00  0.00     0.239 C 
HETATM   25  N   UNL     1       5.146   2.629   0.150  1.00  0.00    -0.368 N 
HETATM   26  H   UNL     1       6.050   2.564  -0.195  1.00  0.00     0.159 HD
HETATM   27  H   UNL     1       4.842   3.453   0.563  1.00  0.00     0.159 HD
HETATM   28  O   UNL     1       4.689   0.545  -0.460  1.00  0.00    -0.271 OA
ENDBRANCH  23  24
ENDBRANCH  22  23
ENDBRANCH  20  22
ENDBRANCH   1  20
TORSDOF 13
