REMARK  9 active torsions:
REMARK  status: ('A' for Active; 'I' for Inactive)
REMARK    1  A    between atoms: N_5  and  C_6 
REMARK    2  A    between atoms: C_6  and  C_7 
REMARK    3  A    between atoms: C_7  and  S_8 
REMARK    4  A    between atoms: C_7  and  CA_12 
REMARK    5  A    between atoms: CA_12  and  C_13 
REMARK    6  A    between atoms: CA_12  and  N_16 
REMARK    7  A    between atoms: C_13  and  OXT_15 
REMARK    8  A    between atoms: N_16  and  C_17 
REMARK    9  A    between atoms: C_18  and  C_19 
ROOT
HETATM    1  C   UNL     1       0.305   1.901  -1.058  1.00  0.00     0.105 C 
HETATM    2  C   UNL     1       0.660   0.432  -0.760  1.00  0.00     0.036 C 
ENDROOT
BRANCH   1   3
HETATM    3  C   UNL     1       0.581   2.821   0.169  1.00  0.00     0.173 C 
BRANCH   3   4
HETATM    4  N   UNL     1      -0.166   2.529   1.392  1.00  0.00    -0.282 N 
HETATM    5  C   UNL     1       0.206   1.704   2.390  1.00  0.00     0.128 A 
HETATM    6  C   UNL     1      -0.841   1.802   3.272  1.00  0.00     0.154 A 
HETATM    7  N   UNL     1      -1.779   2.665   2.778  1.00  0.00    -0.171 NA
HETATM    8  N   UNL     1      -1.345   3.111   1.605  1.00  0.00     0.004 NA
ENDBRANCH   3   4
ENDBRANCH   1   3
BRANCH   1   9
HETATM    9  S   UNL     1       1.346   2.411  -2.451  1.00  0.00     0.150 S 
HETATM   10  O   UNL     1       0.906   3.724  -2.834  1.00  0.00    -0.230 OA
HETATM   11  O   UNL     1       2.702   2.108  -2.084  1.00  0.00    -0.230 OA
HETATM   12  H   UNL     1       1.011   1.580  -3.440  1.00  0.00     0.172 HD
ENDBRANCH   1   9
BRANCH   1  13
HETATM   13  CA  UNL     1      -1.182   2.004  -1.524  1.00  0.00     0.204 C 
BRANCH  13  14
HETATM   14  C   UNL     1      -1.487   1.207  -2.784  1.00  0.00     0.165 C 
HETATM   15  O   UNL     1      -1.351   1.627  -3.927  1.00  0.00    -0.648 OA
BRANCH  14  16
HETATM   16  OXT UNL     1      -1.932  -0.047  -2.514  1.00  0.00    -0.775 OA
HETATM   17  HXT UNL     1      -2.140  -0.600  -3.297  1.00  0.00     0.167 HD
ENDBRANCH  14  16
ENDBRANCH  13  14
BRANCH  13  18
HETATM   18  N   UNL     1      -1.554   3.382  -1.793  1.00  0.00    -0.383 N 
HETATM   19  H   UNL     1      -0.862   4.115  -1.666  1.00  0.00     0.159 HD
BRANCH  18  20
HETATM   20  C   UNL     1      -2.768   3.723  -2.199  1.00  0.00     0.087 C 
HETATM   21  C   UNL     1      -3.213   4.953  -2.474  1.00  0.00     0.058 C 
BRANCH  21  22
HETATM   22  C   UNL     1      -4.609   5.129  -2.917  1.00  0.00     0.260 C 
HETATM   23  O   UNL     1      -5.071   6.232  -3.182  1.00  0.00    -0.302 OA
ENDBRANCH  21  22
ENDBRANCH  18  20
ENDBRANCH  13  18
ENDBRANCH   1  13
TORSDOF 9
