TDJ
  -OEChem-07282321083D

 45 55  0     1  0  0  0  0  0999 V2000
    5.2810   -1.4470  -12.9010 C   0  0  0  0  0  0  0  0  0  0  0  0
   14.8140    5.1180   -9.9530 C   0  4  0  0  0  0  0  0  0  0  0  0
   14.6180    4.3320  -11.0690 C   0  4  0  0  0  0  0  0  0  0  0  0
   13.6930    3.3470  -10.7520 C   0  4  0  0  0  0  0  0  0  0  0  0
   13.3050    3.5350   -9.4530 C   0  4  0  0  0  0  0  0  0  0  0  0
   13.9900    4.6100   -8.9480 C   0  4  0  0  0  0  0  0  0  0  0  0
   11.8770    7.3390  -10.3760 C   0  4  0  0  0  0  0  0  0  0  0  0
   11.0350    6.4190   -9.7430 C   0  4  0  0  0  0  0  0  0  0  0  0
   10.5390    5.5290  -10.6900 C   0  0  0  0  0  0  0  0  0  0  0  0
   11.9000    7.0280  -11.7360 C   0  4  0  0  0  0  0  0  0  0  0  0
    5.3680    2.3920  -14.1810 C   0  0  1  0  0  0  0  0  0  0  0  0
    5.0720    0.9620  -14.4590 C   0  0  1  0  0  0  0  0  0  0  0  0
    3.6980    3.7290  -13.5540 O   0  0  0  0  0  0  0  0  0  0  0  0
    4.2980    3.2700  -14.5720 C   0  0  0  0  0  0  0  0  0  0  0  0
    6.2040   -0.3060  -13.9030 S   0  0  0  0  0  0  0  0  0  0  0  0
    4.1030   -0.7740  -12.1870 C   0  0  0  0  0  0  0  0  0  0  0  0
    3.8140   -1.2360  -10.7870 C   0  0  0  0  0  0  0  0  0  0  0  0
    3.3270    0.1520  -12.8010 C   0  0  0  0  0  0  0  0  0  0  0  0
    1.9060    0.3520  -12.4030 C   0  0  0  0  0  0  0  0  0  0  0  0
    1.5920    0.7380  -11.2740 O   0  0  0  0  0  0  0  0  0  0  0  0
    1.0000    0.1380  -13.2320 O   0  0  0  0  0  0  0  0  0  0  0  0
    3.7330    0.8950  -13.8470 N   0  0  0  0  0  0  0  0  0  0  0  0
    6.1590    2.7960  -13.0620 N   0  0  0  0  0  0  0  0  0  0  0  0
    7.4790    2.7320  -12.9310 C   0  0  0  0  0  0  0  0  0  0  0  0
    8.2610    2.3110  -13.7560 O   0  0  0  0  0  0  0  0  0  0  0  0
    7.9290    3.2710  -11.6030 C   0  0  0  0  0  0  0  0  0  0  0  0
    9.4300    3.4150  -11.5560 C   0  0  0  0  0  0  0  0  0  0  0  0
    9.6520    4.3650  -10.4070 C   0  0  0  0  0  0  0  0  0  0  0  0
    9.1440    4.2090   -9.3040 O   0  0  0  0  0  0  0  0  0  0  0  0
   12.7070    5.3080  -10.6160 Ru  0  0  0  0  0  0  0  0  0  0  0  0
   11.0800    5.9290  -11.9340 C   0  4  0  0  0  0  0  0  0  0  0  0
    3.6690    3.1990  -15.7590 O   0  0  0  0  0  0  0  0  0  0  0  0
    4.8920   -2.2490  -13.5450 H   0  0  0  0  0  0  0  0  0  0  0  0
    5.9540   -1.8780  -12.1450 H   0  0  0  0  0  0  0  0  0  0  0  0
    6.0800    2.5910  -14.9960 H   0  0  0  0  0  0  0  0  0  0  0  0
    4.9790    0.8210  -15.5460 H   0  0  0  0  0  0  0  0  0  0  0  0
    2.9720   -0.8290  -10.2470 H   0  0  0  0  0  0  0  0  0  0  0  0
    4.4480   -1.9750  -10.3210 H   0  0  0  0  0  0  0  0  0  0  0  0
    0.1570    0.3190  -12.8340 H   0  0  0  0  0  0  0  0  0  0  0  0
    5.6580    3.1730  -12.2830 H   0  0  0  0  0  0  0  0  0  0  0  0
    7.4680    4.2560  -11.4400 H   0  0  0  0  0  0  0  0  0  0  0  0
    7.6090    2.5810  -10.8080 H   0  0  0  0  0  0  0  0  0  0  0  0
    9.9130    2.4450  -11.3650 H   0  0  0  0  0  0  0  0  0  0  0  0
    9.8150    3.8370  -12.4960 H   0  0  0  0  0  0  0  0  0  0  0  0
    2.7830    3.5300  -15.6690 H   0  0  0  0  0  0  0  0  0  0  0  0
  1 15  1  0  0  0  0
  1 16  1  0  0  0  0
  2  3  1  0  0  0  0
  2  6  1  0  0  0  0
  2 30  1  0  0  0  0
  3  4  1  0  0  0  0
  3 30  1  0  0  0  0
  4  5  1  0  0  0  0
  4 30  1  0  0  0  0
  5  6  1  0  0  0  0
  5 30  1  0  0  0  0
  6 30  1  0  0  0  0
  7  8  1  0  0  0  0
  7 10  1  0  0  0  0
  7 30  1  0  0  0  0
  8  9  1  0  0  0  0
  8 30  1  0  0  0  0
  9 28  1  0  0  0  0
  9 30  1  0  0  0  0
  9 31  1  0  0  0  0
 10 30  1  0  0  0  0
 10 31  1  0  0  0  0
 11 12  1  0  0  0  0
 11 14  1  0  0  0  0
 11 23  1  0  0  0  0
 12 15  1  0  0  0  0
 12 22  1  0  0  0  0
 13 14  2  0  0  0  0
 16 17  2  0  0  0  0
 16 18  1  0  0  0  0
 18 19  1  0  0  0  0
 18 22  2  0  0  0  0
 19 20  2  0  0  0  0
 19 21  1  0  0  0  0
 23 24  1  0  0  0  0
 24 25  2  0  0  0  0
 24 26  1  0  0  0  0
 26 27  1  0  0  0  0
 27 28  1  0  0  0  0
 28 29  2  0  0  0  0
 30 31  1  0  0  0  0
 14 32  1  0  0  0  0
  1 33  1  0  0  0  0
  1 34  1  0  0  0  0
 11 35  1  0  0  0  0
 12 36  1  0  0  0  0
 17 37  1  0  0  0  0
 17 38  1  0  0  0  0
 21 39  1  0  0  0  0
 23 40  1  0  0  0  0
 26 41  1  0  0  0  0
 26 42  1  0  0  0  0
 27 43  1  0  0  0  0
 27 44  1  0  0  0  0
 32 45  1  0  0  0  0
M  RAD  8   2   2   3   2   4   2   5   2   6   2   7   2   8   2  10   2
M  RAD  1  31   2
M  END
> <OPENEYE_ISO_SMILES>
C=C1CS[C@@H](N=C1C(=O)O)[C@@H](C(=O)O)NC(=O)CCC(=O)C23[C]4[Ru]2567891([C]4[C]5[C]63)[C]2[C]7[C]8[C]9[C]12

> <OPENEYE_INCHI>
InChI=1S/C17H13N2O6S.C5.Ru/c1-9-8-26-15(19-13(9)16(22)23)14(17(24)25)18-12(21)7-6-11(20)10-4-2-3-5-10;1-2-4-5-3-1;/h14-15H,1,6-8H2,(H,18,21)(H,22,23)(H,24,25);;/t14-,15+;;/m0../s1

> <OPENEYE_INCHIKEY>
XRLHOTFPNKFIOM-FZMMWMHASA-N

> <FORMULA>
C22H13N2O6RuS

$$$$
