TEM
  -OEChem-07282321083D

 22 21  0     1  0  0  0  0  0999 V2000
    1.4760   -0.3450    1.5830 O   0  0  0  0  0  0  0  0  0  0  0  0
    0.1170    0.0930    1.6150 C   0  0  1  0  0  0  0  0  0  0  0  0
   -0.6140   -0.4220    0.3740 C   0  0  0  0  0  0  0  0  0  0  0  0
    0.0380    0.0980   -0.8290 N   0  0  0  0  0  0  0  0  0  0  0  0
   -0.4420   -0.2290   -2.0610 C   0  0  0  0  0  0  0  0  0  0  0  0
    0.1610    0.2530   -3.1740 C   0  0  0  0  0  0  0  0  0  0  0  0
   -0.3330   -0.0840   -4.4420 C   0  0  0  0  0  0  0  0  0  0  0  0
    0.2080    0.3480   -5.4400 O   0  0  0  0  0  0  0  0  0  0  0  0
   -0.5640   -0.4510    2.8720 C   0  0  0  0  0  0  0  0  0  0  0  0
    0.1560    0.0560    4.0940 C   0  0  0  0  0  0  0  0  0  0  0  0
   -0.4340    0.7240    4.9090 O   0  0  0  0  0  0  0  0  0  0  0  0
    1.4580   -1.3120    1.5720 H   0  0  0  0  0  0  0  0  0  0  0  0
    0.0860    1.1820    1.6280 H   0  0  0  0  0  0  0  0  0  0  0  0
   -0.5840   -1.5120    0.3610 H   0  0  0  0  0  0  0  0  0  0  0  0
   -1.6510   -0.0880    0.3980 H   0  0  0  0  0  0  0  0  0  0  0  0
    0.8120    0.6770   -0.7480 H   0  0  0  0  0  0  0  0  0  0  0  0
   -1.3040   -0.8730   -2.1500 H   0  0  0  0  0  0  0  0  0  0  0  0
    1.0230    0.8970   -3.0850 H   0  0  0  0  0  0  0  0  0  0  0  0
   -1.1950   -0.7280   -4.5310 H   0  0  0  0  0  0  0  0  0  0  0  0
   -1.6010   -0.1160    2.8960 H   0  0  0  0  0  0  0  0  0  0  0  0
   -0.5340   -1.5400    2.8590 H   0  0  0  0  0  0  0  0  0  0  0  0
    1.2000   -0.1770    4.2410 H   0  0  0  0  0  0  0  0  0  0  0  0
  1  2  1  0  0  0  0
  1 12  1  0  0  0  0
  2  3  1  0  0  0  0
  2  9  1  0  0  0  0
  2 13  1  0  0  0  0
  3  4  1  0  0  0  0
  3 14  1  0  0  0  0
  3 15  1  0  0  0  0
  4  5  1  0  0  0  0
  4 16  1  0  0  0  0
  5  6  2  0  0  0  0
  5 17  1  0  0  0  0
  6  7  1  0  0  0  0
  6 18  1  0  0  0  0
  7  8  2  0  0  0  0
  7 19  1  0  0  0  0
  9 10  1  0  0  0  0
  9 20  1  0  0  0  0
  9 21  1  0  0  0  0
 10 11  2  0  0  0  0
 10 22  1  0  0  0  0
M  END
> <OPENEYE_ISO_SMILES>
C(C=O)[C@H](CN/C=C/C=O)O

> <OPENEYE_INCHI>
InChI=1S/C7H11NO3/c9-4-1-3-8-6-7(11)2-5-10/h1,3-5,7-8,11H,2,6H2/b3-1+/t7-/m1/s1

> <OPENEYE_INCHIKEY>
FXITUJNZFYVSNC-RCYFRSRISA-N

> <FORMULA>
C7H11NO3

$$$$
