REMARK  7 active torsions:
REMARK  status: ('A' for Active; 'I' for Inactive)
REMARK    1  A    between atoms: O_1  and  C_2 
REMARK    2  A    between atoms: C_2  and  C_3 
REMARK    3  A    between atoms: C_2  and  C_9 
REMARK    4  A    between atoms: C_3  and  N_4 
REMARK    5  A    between atoms: N_4  and  C_5 
REMARK    6  A    between atoms: C_6  and  C_7 
REMARK    7  A    between atoms: C_9  and  C_10 
ROOT
HETATM    1  C   UNL     1      -0.614  -0.422   0.374  1.00  0.00     0.151 C 
ENDROOT
BRANCH   1   2
HETATM    2  C   UNL     1       0.117   0.093   1.615  1.00  0.00     0.142 C 
BRANCH   2   3
HETATM    3  O   UNL     1       1.476  -0.345   1.583  1.00  0.00    -0.394 OA
HETATM    4  H   UNL     1       1.458  -1.312   1.572  1.00  0.00     0.210 HD
ENDBRANCH   2   3
BRANCH   2   5
HETATM    5  C   UNL     1      -0.564  -0.451   2.872  1.00  0.00     0.102 C 
BRANCH   5   6
HETATM    6  C   UNL     1       0.156   0.056   4.094  1.00  0.00     0.233 C 
HETATM    7  O   UNL     1      -0.434   0.724   4.909  1.00  0.00    -0.307 OA
ENDBRANCH   5   6
ENDBRANCH   2   5
ENDBRANCH   1   2
BRANCH   1   8
HETATM    8  N   UNL     1       0.038   0.098  -0.829  1.00  0.00    -0.396 N 
HETATM    9  H   UNL     1       0.812   0.677  -0.748  1.00  0.00     0.158 HD
BRANCH   8  10
HETATM   10  C   UNL     1      -0.442  -0.229  -2.061  1.00  0.00     0.086 C 
HETATM   11  C   UNL     1       0.161   0.253  -3.174  1.00  0.00     0.058 C 
BRANCH  11  12
HETATM   12  C   UNL     1      -0.333  -0.084  -4.442  1.00  0.00     0.260 C 
HETATM   13  O   UNL     1       0.208   0.348  -5.440  1.00  0.00    -0.302 OA
ENDBRANCH  11  12
ENDBRANCH   8  10
ENDBRANCH   1   8
TORSDOF 7
