TJ7
  -OEChem-07282321083D

 47 48  0     1  0  0  0  0  0999 V2000
   -1.5120   -0.2060    2.4640 O   0  0  0  0  0  0  0  0  0  0  0  0
   -0.5310    0.2820    1.9570 C   0  0  0  0  0  0  0  0  0  0  0  0
   -0.5600    0.6980    0.5080 C   0  0  2  0  0  0  0  0  0  0  0  0
   -0.2980    2.0990    0.4100 O   0  0  0  0  0  0  0  0  0  0  0  0
   -0.3020    2.5990   -0.9290 C   0  0  0  0  0  0  0  0  0  0  0  0
   -1.9380    0.3940   -0.0820 C   0  0  1  0  0  0  0  0  0  0  0  0
   -2.3360   -1.3980    0.0490 S   0  0  0  0  0  0  0  0  0  0  0  0
   -4.1550   -1.1510    0.0980 C   0  0  0  0  0  0  0  0  0  0  0  0
   -4.7740   -1.4200   -1.2760 C   0  0  0  0  0  0  0  0  0  0  0  0
   -4.7950   -2.0480    1.1600 C   0  0  0  0  0  0  0  0  0  0  0  0
   -4.3070    0.3330    0.4790 C   0  0  2  0  0  0  0  0  0  0  0  0
   -4.9900    1.0590   -0.6510 C   0  0  0  0  0  0  0  0  0  0  0  0
   -6.3230    0.9840   -0.7870 O   0  0  0  0  0  0  0  0  0  0  0  0
   -4.3380    1.7070   -1.4350 O   0  0  0  0  0  0  0  0  0  0  0  0
   -3.0220    0.9860    0.7510 N   0  0  0  0  0  0  0  0  0  0  0  0
    0.4630   -0.0430   -0.2330 N   0  0  0  0  0  0  0  0  0  0  0  0
    1.7680    0.2440   -0.0520 C   0  0  0  0  0  0  0  0  0  0  0  0
    2.1000    1.0480    0.7930 O   0  0  0  0  0  0  0  0  0  0  0  0
    2.8130   -0.4340   -0.9000 C   0  0  2  0  0  0  0  0  0  0  0  0
    2.7370   -1.9250   -0.6940 C   0  0  0  0  0  0  0  0  0  0  0  0
    1.9180   -2.3890    0.0630 O   0  0  0  0  0  0  0  0  0  0  0  0
    3.5790   -2.7370   -1.3520 O   0  0  0  0  0  0  0  0  0  0  0  0
    4.1800    0.0590   -0.5010 C   0  0  0  0  0  0  0  0  0  0  0  0
    5.0260    0.7050   -1.3850 C   0  0  0  0  0  0  0  0  0  0  0  0
    6.1980    1.0810   -0.8700 C   0  0  0  0  0  0  0  0  0  0  0  0
    6.2750    0.6120    0.8240 S   0  0  0  0  0  0  0  0  0  0  0  0
    4.6640   -0.0890    0.7340 C   0  0  0  0  0  0  0  0  0  0  0  0
    0.3650    0.4260    2.5420 H   0  0  0  0  0  0  0  0  0  0  0  0
   -1.2790    2.4220   -1.3800 H   0  0  0  0  0  0  0  0  0  0  0  0
   -0.0950    3.6690   -0.9190 H   0  0  0  0  0  0  0  0  0  0  0  0
    0.4650    2.0860   -1.5110 H   0  0  0  0  0  0  0  0  0  0  0  0
   -2.0050    0.7380   -1.1150 H   0  0  0  0  0  0  0  0  0  0  0  0
   -4.2710   -0.8100   -2.0260 H   0  0  0  0  0  0  0  0  0  0  0  0
   -4.6570   -2.4740   -1.5270 H   0  0  0  0  0  0  0  0  0  0  0  0
   -5.8340   -1.1680   -1.2530 H   0  0  0  0  0  0  0  0  0  0  0  0
   -5.8560   -1.8120    1.2440 H   0  0  0  0  0  0  0  0  0  0  0  0
   -4.6770   -3.0930    0.8710 H   0  0  0  0  0  0  0  0  0  0  0  0
   -4.3070   -1.8790    2.1200 H   0  0  0  0  0  0  0  0  0  0  0  0
   -4.9320    0.4060    1.3690 H   0  0  0  0  0  0  0  0  0  0  0  0
   -6.7170    1.4670   -1.5280 H   0  0  0  0  0  0  0  0  0  0  0  0
   -3.0850    1.9830    0.6090 H   0  0  0  0  0  0  0  0  0  0  0  0
    0.2020   -0.7410   -0.8540 H   0  0  0  0  0  0  0  0  0  0  0  0
    2.6360   -0.2020   -1.9500 H   0  0  0  0  0  0  0  0  0  0  0  0
    3.4920   -3.6860   -1.1880 H   0  0  0  0  0  0  0  0  0  0  0  0
    4.7590    0.8900   -2.4150 H   0  0  0  0  0  0  0  0  0  0  0  0
    6.9790    1.5950   -1.4100 H   0  0  0  0  0  0  0  0  0  0  0  0
    4.1450   -0.5640    1.5530 H   0  0  0  0  0  0  0  0  0  0  0  0
 24 25  2  0  0  0  0
 25 26  1  0  0  0  0
 12 14  2  0  0  0  0
 23 24  1  0  0  0  0
  8 10  1  0  0  0  0
 26 27  1  0  0  0  0
 12 13  1  0  0  0  0
 11 12  1  0  0  0  0
 23 27  2  0  0  0  0
 19 23  1  0  0  0  0
  8 11  1  0  0  0  0
  8  9  1  0  0  0  0
  7  8  1  0  0  0  0
 11 15  1  0  0  0  0
 20 21  2  0  0  0  0
 19 20  1  0  0  0  0
 17 19  1  0  0  0  0
 20 22  1  0  0  0  0
  6  7  1  0  0  0  0
 16 17  1  0  0  0  0
  3 16  1  0  0  0  0
 17 18  2  0  0  0  0
  6 15  1  0  0  0  0
  1  2  2  0  0  0  0
  3  6  1  0  0  0  0
  2  3  1  0  0  0  0
  3  4  1  0  0  0  0
  4  5  1  0  0  0  0
  2 28  1  0  0  0  0
  5 29  1  0  0  0  0
  5 30  1  0  0  0  0
  5 31  1  0  0  0  0
  6 32  1  0  0  0  0
  9 33  1  0  0  0  0
  9 34  1  0  0  0  0
  9 35  1  0  0  0  0
 10 36  1  0  0  0  0
 10 37  1  0  0  0  0
 10 38  1  0  0  0  0
 11 39  1  0  0  0  0
 13 40  1  0  0  0  0
 15 41  1  0  0  0  0
 16 42  1  0  0  0  0
 19 43  1  0  0  0  0
 22 44  1  0  0  0  0
 24 45  1  0  0  0  0
 25 46  1  0  0  0  0
 27 47  1  0  0  0  0
M  END
> <OPENEYE_ISO_SMILES>
CC1([C@@H](N[C@H](S1)[C@@](C=O)(NC(=O)[C@@H](c2ccsc2)C(=O)O)OC)C(=O)O)C

> <OPENEYE_INCHI>
InChI=1S/C16H20N2O7S2/c1-15(2)10(13(23)24)17-14(27-15)16(7-19,25-3)18-11(20)9(12(21)22)8-4-5-26-6-8/h4-7,9-10,14,17H,1-3H3,(H,18,20)(H,21,22)(H,23,24)/t9-,10+,14-,16+/m1/s1

> <OPENEYE_INCHIKEY>
DGNYADVSOUQAEQ-LCFNMQHZSA-N

> <FORMULA>
C16H20N2O7S2

$$$$
