TSL
  -OEChem-07282321083D

 28 27  0     1  0  0  0  0  0999 V2000
    1.1180   -1.1430   -1.9020 C   0  0  0  0  0  0  0  0  0  0  0  0
    1.4140   -0.0650   -0.8570 C   0  0  0  0  0  0  0  0  0  0  0  0
    1.9060   -0.8530    0.7010 S   0  0  2  0  0  0  0  0  0  0  0  0
    3.2240   -1.5250    0.3430 O   0  0  0  0  0  0  0  0  0  0  0  0
    1.0480   -1.9530    0.9670 O   0  0  0  0  0  0  0  0  0  0  0  0
    2.5480    0.8310   -1.3570 C   0  0  0  0  0  0  0  0  0  0  0  0
    0.1590    0.7800   -0.6280 C   0  0  2  0  0  0  0  0  0  0  0  0
    0.4400    1.8190    0.4270 C   0  0  0  0  0  0  0  0  0  0  0  0
    0.9860    2.9960    0.0820 O   0  0  0  0  0  0  0  0  0  0  0  0
    0.1730    1.5930    1.5840 O   0  0  0  0  0  0  0  0  0  0  0  0
   -0.9370   -0.0840   -0.1820 N   0  0  0  0  0  0  0  0  0  0  0  0
   -2.2300    0.2910   -0.3940 C   0  0  0  0  0  0  0  0  0  0  0  0
   -3.2440   -0.5080    0.0180 C   0  0  0  0  0  0  0  0  0  0  0  0
   -4.5740   -0.1220   -0.2000 C   0  0  0  0  0  0  0  0  0  0  0  0
   -5.4830   -0.8380    0.1690 O   0  0  0  0  0  0  0  0  0  0  0  0
    0.3100   -1.7820   -1.5460 H   0  0  0  0  0  0  0  0  0  0  0  0
    0.8220   -0.6700   -2.8390 H   0  0  0  0  0  0  0  0  0  0  0  0
    2.0120   -1.7450   -2.0660 H   0  0  0  0  0  0  0  0  0  0  0  0
    3.6340   -2.0020    1.0780 H   0  0  0  0  0  0  0  0  0  0  0  0
    2.2530    1.3040   -2.2930 H   0  0  0  0  0  0  0  0  0  0  0  0
    2.7590    1.5990   -0.6120 H   0  0  0  0  0  0  0  0  0  0  0  0
    3.4420    0.2290   -1.5200 H   0  0  0  0  0  0  0  0  0  0  0  0
   -0.1220    1.2730   -1.5580 H   0  0  0  0  0  0  0  0  0  0  0  0
    1.1480    3.6300    0.7930 H   0  0  0  0  0  0  0  0  0  0  0  0
   -0.7430   -0.9230    0.2630 H   0  0  0  0  0  0  0  0  0  0  0  0
   -2.4460    1.2260   -0.8910 H   0  0  0  0  0  0  0  0  0  0  0  0
   -3.0270   -1.4420    0.5140 H   0  0  0  0  0  0  0  0  0  0  0  0
   -4.7900    0.8130   -0.6970 H   0  0  0  0  0  0  0  0  0  0  0  0
  1  2  1  0  0  0  0
  1 16  1  0  0  0  0
  1 17  1  0  0  0  0
  1 18  1  0  0  0  0
  2  3  1  0  0  0  0
  2  6  1  0  0  0  0
  2  7  1  0  0  0  0
  3  4  1  0  0  0  0
  3  5  2  0  0  0  0
  4 19  1  0  0  0  0
  6 20  1  0  0  0  0
  6 21  1  0  0  0  0
  6 22  1  0  0  0  0
  7  8  1  0  0  0  0
  7 11  1  0  0  0  0
  7 23  1  0  0  0  0
  8  9  1  0  0  0  0
  8 10  2  0  0  0  0
  9 24  1  0  0  0  0
 11 12  1  0  0  0  0
 11 25  1  0  0  0  0
 12 13  2  0  0  0  0
 12 26  1  0  0  0  0
 13 14  1  0  0  0  0
 13 27  1  0  0  0  0
 14 15  2  0  0  0  0
 14 28  1  0  0  0  0
M  END
> <OPENEYE_ISO_SMILES>
CC(C)([C@H](C(=O)O)N/C=C/C=O)[S@@](=O)O

> <OPENEYE_INCHI>
InChI=1S/C8H13NO5S/c1-8(2,15(13)14)6(7(11)12)9-4-3-5-10/h3-6,9H,1-2H3,(H,11,12)(H,13,14)/b4-3+/t6-/m0/s1

> <OPENEYE_INCHIKEY>
DPHUOYJKDIRKGT-YUDCMIJISA-N

> <FORMULA>
C8H13NO5S

$$$$
