TVE
  -OEChem-07282321093D

 60 62  0     1  0  0  0  0  0999 V2000
    2.9690   -0.7560   -0.0060 C   0  0  1  0  0  0  0  0  0  0  0  0
    4.1960   -1.4030   -0.6910 C   0  0  2  0  0  0  0  0  0  0  0  0
    4.4450   -2.7790   -0.1290 C   0  0  0  0  0  0  0  0  0  0  0  0
    4.9390    0.6280    0.0360 C   0  0  0  0  0  0  0  0  0  0  0  0
    3.4300    0.7190    0.0830 C   0  0  1  0  0  0  0  0  0  0  0  0
    2.9020    1.5190   -1.1100 C   0  0  0  0  0  0  0  0  0  0  0  0
    5.8710    1.7450    0.4310 C   0  0  1  0  0  0  0  0  0  0  0  0
    7.3170    1.2470    0.3720 C   0  0  1  0  0  0  0  0  0  0  0  0
    8.2630    2.3810    0.7720 C   0  0  0  0  0  0  0  0  0  0  0  0
    5.6990    2.9020   -0.5190 C   0  0  0  0  0  0  0  0  0  0  0  0
    5.3200   -0.5130   -0.3780 N   0  0  0  0  0  0  0  0  0  0  0  0
    3.7930   -3.8380   -0.6340 O   0  0  0  0  0  0  0  0  0  0  0  0
    5.2310   -2.9280    0.7760 O   0  0  0  0  0  0  0  0  0  0  0  0
    7.4800    0.1500    1.2730 O   0  0  0  0  0  0  0  0  0  0  0  0
    5.3520    3.9800   -0.1000 O   0  0  0  0  0  0  0  0  0  0  0  0
    1.4840   -0.9170   -1.0360 S   0  0  0  0  0  0  0  0  0  0  0  0
    2.8050   -1.1780    0.9860 H   0  0  0  0  0  0  0  0  0  0  0  0
    4.0430   -1.4570   -1.7690 H   0  0  0  0  0  0  0  0  0  0  0  0
    3.1020    1.1670    1.0210 H   0  0  0  0  0  0  0  0  0  0  0  0
    1.8130    1.4890   -1.1150 H   0  0  0  0  0  0  0  0  0  0  0  0
    3.2370    2.5540   -1.0300 H   0  0  0  0  0  0  0  0  0  0  0  0
    3.2820    1.0860   -2.0350 H   0  0  0  0  0  0  0  0  0  0  0  0
    5.6400    2.0700    1.4450 H   0  0  0  0  0  0  0  0  0  0  0  0
    7.5480    0.9220   -0.6430 H   0  0  0  0  0  0  0  0  0  0  0  0
    8.0310    2.7060    1.7870 H   0  0  0  0  0  0  0  0  0  0  0  0
    9.2930    2.0260    0.7300 H   0  0  0  0  0  0  0  0  0  0  0  0
    8.1380    3.2180    0.0850 H   0  0  0  0  0  0  0  0  0  0  0  0
    5.8850    2.7670   -1.5740 H   0  0  0  0  0  0  0  0  0  0  0  0
    3.9290   -4.6880   -0.1930 H   0  0  0  0  0  0  0  0  0  0  0  0
    7.2900    0.3670    2.1950 H   0  0  0  0  0  0  0  0  0  0  0  0
    0.1650   -0.3100    0.0520 C   0  0  1  0  0  0  0  0  0  0  0  0
   -1.1670   -0.2180   -0.7210 C   0  0  0  0  0  0  0  0  0  0  0  0
   -2.1240   -1.1800    0.0150 C   0  0  1  0  0  0  0  0  0  0  0  0
   -1.5710   -1.2800    1.3900 N   0  0  0  0  0  0  0  0  0  0  0  0
   -0.0990   -1.3190    1.1900 C   0  0  0  0  0  0  0  0  0  0  0  0
   -1.8380   -0.4820    1.9470 H   0  0  0  0  0  0  0  0  0  0  0  0
    0.2170   -2.3190    0.8920 H   0  0  0  0  0  0  0  0  0  0  0  0
   -3.5190   -0.6090    0.0500 C   0  0  0  0  0  0  0  0  0  0  0  0
   -3.9220   -0.0560    1.0510 O   0  0  0  0  0  0  0  0  0  0  0  0
   -4.3170   -0.7140   -1.0310 N   0  0  0  0  0  0  0  0  0  0  0  0
   -5.5750   -0.1020   -1.0330 C   0  0  0  0  0  0  0  0  0  0  0  0
   -6.0760    0.4510   -2.2050 C   0  0  0  0  0  0  0  0  0  0  0  0
   -7.3190    1.0570   -2.2130 C   0  0  0  0  0  0  0  0  0  0  0  0
   -8.0710    1.1160   -1.0580 C   0  0  0  0  0  0  0  0  0  0  0  0
   -7.5760    0.5630    0.1250 C   0  0  0  0  0  0  0  0  0  0  0  0
   -6.3240   -0.0530    0.1320 C   0  0  0  0  0  0  0  0  0  0  0  0
   -5.4930    0.4090   -3.1130 H   0  0  0  0  0  0  0  0  0  0  0  0
   -9.0410    1.5910   -1.0680 H   0  0  0  0  0  0  0  0  0  0  0  0
   -5.9370   -0.4830    1.0440 H   0  0  0  0  0  0  0  0  0  0  0  0
   -8.3790    0.6250    1.3650 C   0  0  0  0  0  0  0  0  0  0  0  0
   -7.9470    0.1430    2.3920 O   0  0  0  0  0  0  0  0  0  0  0  0
   -9.5890    1.2150    1.3540 O   0  0  0  0  0  0  0  0  0  0  0  0
  -10.0770    1.2310    2.1890 H   0  0  0  0  0  0  0  0  0  0  0  0
   -7.7030    1.4860   -3.1270 H   0  0  0  0  0  0  0  0  0  0  0  0
   -1.5540    0.8000   -0.6880 H   0  0  0  0  0  0  0  0  0  0  0  0
   -4.0190   -1.2140   -1.8070 H   0  0  0  0  0  0  0  0  0  0  0  0
    0.4330    0.6640    0.4620 H   0  0  0  0  0  0  0  0  0  0  0  0
   -1.0280   -0.5390   -1.7530 H   0  0  0  0  0  0  0  0  0  0  0  0
   -2.1250   -2.1580   -0.4660 H   0  0  0  0  0  0  0  0  0  0  0  0
    0.4170   -1.0110    2.0990 H   0  0  0  0  0  0  0  0  0  0  0  0
  1 16  1  0  0  0  0
  3 13  2  0  0  0  0
  1  2  1  0  0  0  0
  1  5  1  0  0  0  0
  5  6  1  0  0  0  0
  2  3  1  0  0  0  0
  2 11  1  0  0  0  0
  3 12  1  0  0  0  0
  4  5  1  0  0  0  0
  4 11  2  0  0  0  0
  4  7  1  0  0  0  0
  7 10  1  0  0  0  0
  7  8  1  0  0  0  0
 10 15  2  0  0  0  0
  8  9  1  0  0  0  0
  8 14  1  0  0  0  0
  1 17  1  0  0  0  0
  2 18  1  0  0  0  0
  5 19  1  0  0  0  0
  6 20  1  0  0  0  0
  6 21  1  0  0  0  0
  6 22  1  0  0  0  0
  7 23  1  0  0  0  0
  8 24  1  0  0  0  0
  9 25  1  0  0  0  0
  9 26  1  0  0  0  0
  9 27  1  0  0  0  0
 10 28  1  0  0  0  0
 12 29  1  0  0  0  0
 14 30  1  0  0  0  0
 16 31  1  0  0  0  0
 31 32  1  0  0  0  0
 32 33  1  0  0  0  0
 33 34  1  0  0  0  0
 34 35  1  0  0  0  0
 31 35  1  0  0  0  0
 34 36  1  0  0  0  0
 35 37  1  0  0  0  0
 33 38  1  0  0  0  0
 38 39  2  0  0  0  0
 38 40  1  0  0  0  0
 40 41  1  0  0  0  0
 41 42  1  0  0  0  0
 42 43  2  0  0  0  0
 43 44  1  0  0  0  0
 44 45  2  0  0  0  0
 45 46  1  0  0  0  0
 41 46  2  0  0  0  0
 42 47  1  0  0  0  0
 44 48  1  0  0  0  0
 46 49  1  0  0  0  0
 45 50  1  0  0  0  0
 50 51  2  0  0  0  0
 50 52  1  0  0  0  0
 52 53  1  0  0  0  0
 43 54  1  0  0  0  0
 32 55  1  0  0  0  0
 40 56  1  0  0  0  0
 31 57  1  0  0  0  0
 32 58  1  0  0  0  0
 33 59  1  0  0  0  0
 35 60  1  0  0  0  0
M  END
> <OPENEYE_ISO_SMILES>
C[C@H]1[C@H]([C@@H](N=C1[C@H](C=O)[C@@H](C)O)C(=O)O)S[C@H]2C[C@@H](NC2)C(=O)Nc3cccc(c3)C(=O)O

> <OPENEYE_INCHI>
InChI=1S/C22H27N3O7S/c1-10-17(15(9-26)11(2)27)25-18(22(31)32)19(10)33-14-7-16(23-8-14)20(28)24-13-5-3-4-12(6-13)21(29)30/h3-6,9-11,14-16,18-19,23,27H,7-8H2,1-2H3,(H,24,28)(H,29,30)(H,31,32)/t10-,11-,14+,15-,16-,18-,19-/m1/s1

> <OPENEYE_INCHIKEY>
IYAWOFDGKUIGMU-BQLQCADKSA-N

> <FORMULA>
C22H27N3O7S

$$$$
