U2Y
  -OEChem-07282321093D

 29 29  0     0  0  0  0  0  0999 V2000
    2.7550   -0.5240    0.0320 N   0  0  0  0  0  0  0  0  0  0  0  0
   -3.8330   -0.1170   -0.1170 B   0  0  0  0  0  0  0  0  0  0  0  0
    4.8810    0.1820   -0.9500 C   0  0  0  0  0  0  0  0  0  0  0  0
   -0.3170    1.4270   -0.1410 C   0  0  0  0  0  0  0  0  0  0  0  0
    4.1960   -0.4190    0.2790 C   0  0  0  0  0  0  0  0  0  0  0  0
    2.2010   -1.7400   -0.5680 C   0  0  0  0  0  0  0  0  0  0  0  0
    1.9390    0.4970    0.3620 C   0  0  0  0  0  0  0  0  0  0  0  0
    0.4720    0.3400    0.2400 C   0  0  0  0  0  0  0  0  0  0  0  0
   -0.1240   -0.8930    0.5060 C   0  0  0  0  0  0  0  0  0  0  0  0
   -1.4900   -1.0370    0.3920 C   0  0  0  0  0  0  0  0  0  0  0  0
   -2.2770    0.0480    0.0120 C   0  0  0  0  0  0  0  0  0  0  0  0
   -1.6840    1.2820   -0.2490 C   0  0  0  0  0  0  0  0  0  0  0  0
    2.4080    1.5450    0.7600 O   0  0  0  0  0  0  0  0  0  0  0  0
   -4.4380   -1.3730    0.1530 O   0  0  0  0  0  0  0  0  0  0  0  0
   -4.6350    0.9890   -0.5050 O   0  0  0  0  0  0  0  0  0  0  0  0
    4.4730    1.1730   -1.1460 H   0  0  0  0  0  0  0  0  0  0  0  0
    5.9520    0.2600   -0.7670 H   0  0  0  0  0  0  0  0  0  0  0  0
    4.7060   -0.4600   -1.8140 H   0  0  0  0  0  0  0  0  0  0  0  0
    0.1430    2.3820   -0.3470 H   0  0  0  0  0  0  0  0  0  0  0  0
    4.3710    0.2220    1.1420 H   0  0  0  0  0  0  0  0  0  0  0  0
    4.6040   -1.4110    0.4740 H   0  0  0  0  0  0  0  0  0  0  0  0
    2.0120   -2.4770    0.2130 H   0  0  0  0  0  0  0  0  0  0  0  0
    1.2670   -1.5020   -1.0760 H   0  0  0  0  0  0  0  0  0  0  0  0
    2.9120   -2.1470   -1.2860 H   0  0  0  0  0  0  0  0  0  0  0  0
    0.4860   -1.7350    0.8000 H   0  0  0  0  0  0  0  0  0  0  0  0
   -1.9510   -1.9930    0.5930 H   0  0  0  0  0  0  0  0  0  0  0  0
   -2.2950    2.1240   -0.5390 H   0  0  0  0  0  0  0  0  0  0  0  0
   -5.3990   -1.3770    0.0470 H   0  0  0  0  0  0  0  0  0  0  0  0
   -5.5800    0.7900   -0.5570 H   0  0  0  0  0  0  0  0  0  0  0  0
  2 15  1  0  0  0  0
  2 14  1  0  0  0  0
  2 11  1  0  0  0  0
 10 11  2  0  0  0  0
  9 10  1  0  0  0  0
 11 12  1  0  0  0  0
  8  9  2  0  0  0  0
  3  5  1  0  0  0  0
  4 12  2  0  0  0  0
  4  8  1  0  0  0  0
  7  8  1  0  0  0  0
  1  5  1  0  0  0  0
  1  7  1  0  0  0  0
  7 13  2  0  0  0  0
  1  6  1  0  0  0  0
  3 16  1  0  0  0  0
  3 17  1  0  0  0  0
  3 18  1  0  0  0  0
  4 19  1  0  0  0  0
  5 20  1  0  0  0  0
  5 21  1  0  0  0  0
  6 22  1  0  0  0  0
  6 23  1  0  0  0  0
  6 24  1  0  0  0  0
  9 25  1  0  0  0  0
 10 26  1  0  0  0  0
 12 27  1  0  0  0  0
 14 28  1  0  0  0  0
 15 29  1  0  0  0  0
M  END
> <OPENEYE_ISO_SMILES>
B(c1ccc(cc1)C(=O)N(C)CC)(O)O

> <OPENEYE_INCHI>
InChI=1S/C10H14BNO3/c1-3-12(2)10(13)8-4-6-9(7-5-8)11(14)15/h4-7,14-15H,3H2,1-2H3

> <OPENEYE_INCHIKEY>
AWXVNEUNYSIXAD-UHFFFAOYSA-N

> <FORMULA>
C10H14BNO3

$$$$
