REMARK  5 active torsions:
REMARK  status: ('A' for Active; 'I' for Inactive)
REMARK    1  A    between atoms: N_1  and  C_5 
REMARK       I    between atoms: N_1  and  C_7 
REMARK    2  A    between atoms: B_2  and  O_15 
REMARK    3  A    between atoms: B_2  and  O_14 
REMARK    4  A    between atoms: B_2  and  C_11 
REMARK    5  A    between atoms: C_7  and  C_8 
ROOT
HETATM    1  C   UNL     1      -0.317   1.427  -0.141  1.00  0.00     0.017 A 
HETATM    2  C   UNL     1       0.472   0.340   0.240  1.00  0.00     0.032 A 
HETATM    3  C   UNL     1      -0.124  -0.893   0.506  1.00  0.00     0.017 A 
HETATM    4  C   UNL     1      -1.490  -1.037   0.392  1.00  0.00     0.002 A 
HETATM    5  C   UNL     1      -2.277   0.048   0.012  1.00  0.00    -0.032 A 
HETATM    6  C   UNL     1      -1.684   1.282  -0.249  1.00  0.00     0.002 A 
ENDROOT
BRANCH   2   7
HETATM    7  C   UNL     1       1.939   0.497   0.362  1.00  0.00     0.253 C 
HETATM    8  N   UNL     1       2.755  -0.524   0.032  1.00  0.00    -0.353 N 
HETATM    9  C   UNL     1       2.201  -1.740  -0.568  1.00  0.00     0.152 C 
HETATM   10  O   UNL     1       2.408   1.545   0.760  1.00  0.00    -0.267 OA
BRANCH   8  11
HETATM   11  C   UNL     1       4.196  -0.419   0.279  1.00  0.00     0.121 C 
HETATM   12  C   UNL     1       4.881   0.182  -0.950  1.00  0.00     0.026 C 
ENDBRANCH   8  11
ENDBRANCH   2   7
BRANCH   5  13
HETATM   13  B   UNL     1      -3.833  -0.117  -0.117  1.00  0.00     0.529 B 
BRANCH  13  14
HETATM   14  O   UNL     1      -4.635   0.989  -0.505  1.00  0.00    -0.433 OA
HETATM   15  H   UNL     1      -5.580   0.790  -0.557  1.00  0.00     0.185 HD
ENDBRANCH  13  14
BRANCH  13  16
HETATM   16  O   UNL     1      -4.438  -1.373   0.153  1.00  0.00    -0.433 OA
HETATM   17  H   UNL     1      -5.399  -1.377   0.047  1.00  0.00     0.185 HD
ENDBRANCH  13  16
ENDBRANCH   5  13
TORSDOF 5
