WY2
  -OEChem-07282321093D

 37 40  0     1  0  0  0  0  0999 V2000
   -0.6790    3.9870    1.6790 S   0  0  0  0  0  0  0  0  0  0  0  0
   -1.4070    3.3280    3.1970 C   0  0  0  0  0  0  0  0  0  0  0  0
   -0.2770    3.0610    4.1470 C   0  0  0  0  0  0  0  0  0  0  0  0
    0.5460    2.0650    4.1150 N   0  0  0  0  0  0  0  0  0  0  0  0
    0.3790    1.1070    3.1530 C   0  0  0  0  0  0  0  0  0  0  0  0
    0.2300    1.2610    1.8260 C   0  0  0  0  0  0  0  0  0  0  0  0
    0.1220   -0.0170    1.0910 C   0  0  0  0  0  0  0  0  0  0  0  0
    1.0690   -0.6220    0.6410 O   0  0  0  0  0  0  0  0  0  0  0  0
   -1.1730   -0.3730    1.0170 O   0  0  0  0  0  0  0  0  0  0  0  0
    0.1450    2.5070    0.9730 C   0  0  2  0  0  0  0  0  0  0  0  0
    1.4850    2.8870    0.3800 C   0  0  0  0  0  0  0  0  0  0  0  0
    1.8400    2.9200   -0.9600 C   0  0  0  0  0  0  0  0  0  0  0  0
    3.1380    3.3200   -0.9440 N   0  0  0  0  0  0  0  0  0  0  0  0
    3.4940    3.5060    0.3640 C   0  0  0  0  0  0  0  0  0  0  0  0
    2.5310    3.2570    1.2080 N   0  0  0  0  0  0  0  0  0  0  0  0
    5.1630    4.0300    0.5080 S   0  0  0  0  0  0  0  0  0  0  0  0
    5.2660    3.9630   -1.2210 C   0  0  0  0  0  0  0  0  0  0  0  0
    4.1420    3.5800   -1.8290 C   0  0  0  0  0  0  0  0  0  0  0  0
    4.2370    3.5310   -3.2950 C   0  0  0  0  0  0  0  0  0  0  0  0
    5.7610    3.7170   -3.4900 C   0  0  0  0  0  0  0  0  0  0  0  0
    6.3580    4.2550   -2.1660 C   0  0  0  0  0  0  0  0  0  0  0  0
   -0.0430    4.0680    5.2220 C   0  0  0  0  0  0  0  0  0  0  0  0
    0.6870    5.0160    5.0960 O   0  0  0  0  0  0  0  0  0  0  0  0
   -0.7690    3.7220    6.2950 O   0  0  0  0  0  0  0  0  0  0  0  0
   -2.0080    2.4340    3.0100 H   0  0  0  0  0  0  0  0  0  0  0  0
   -2.0710    4.0860    3.6240 H   0  0  0  0  0  0  0  0  0  0  0  0
    0.4340    0.0980    3.5600 H   0  0  0  0  0  0  0  0  0  0  0  0
   -1.2850   -1.2200    0.5350 H   0  0  0  0  0  0  0  0  0  0  0  0
   -0.4920    2.2620    0.1130 H   0  0  0  0  0  0  0  0  0  0  0  0
    1.2960    2.7000   -1.8680 H   0  0  0  0  0  0  0  0  0  0  0  0
    3.9010    2.5790   -3.7130 H   0  0  0  0  0  0  0  0  0  0  0  0
    3.6770    4.3510   -3.7560 H   0  0  0  0  0  0  0  0  0  0  0  0
    6.2180    2.7470   -3.7280 H   0  0  0  0  0  0  0  0  0  0  0  0
    5.9810    4.3850   -4.3310 H   0  0  0  0  0  0  0  0  0  0  0  0
    6.5490    5.3310   -2.2290 H   0  0  0  0  0  0  0  0  0  0  0  0
    7.2880    3.7360   -1.9170 H   0  0  0  0  0  0  0  0  0  0  0  0
   -0.6410    4.3630    7.0260 H   0  0  0  0  0  0  0  0  0  0  0  0
  1  2  1  0  0  0  0
  1 10  1  0  0  0  0
  2  3  1  0  0  0  0
  2 25  1  0  0  0  0
  2 26  1  0  0  0  0
  3  4  2  0  0  0  0
  3 22  1  0  0  0  0
  4  5  1  0  0  0  0
  5  6  2  0  0  0  0
  5 27  1  0  0  0  0
  6  7  1  0  0  0  0
  6 10  1  0  0  0  0
  7  8  2  0  0  0  0
  7  9  1  0  0  0  0
  9 28  1  0  0  0  0
 10 11  1  0  0  0  0
 10 29  1  0  0  0  0
 11 12  2  0  0  0  0
 11 15  1  0  0  0  0
 12 13  1  0  0  0  0
 12 30  1  0  0  0  0
 13 14  1  0  0  0  0
 13 18  1  0  0  0  0
 14 15  2  0  0  0  0
 14 16  1  0  0  0  0
 16 17  1  0  0  0  0
 17 18  2  0  0  0  0
 17 21  1  0  0  0  0
 18 19  1  0  0  0  0
 19 20  1  0  0  0  0
 19 31  1  0  0  0  0
 19 32  1  0  0  0  0
 20 21  1  0  0  0  0
 20 33  1  0  0  0  0
 20 34  1  0  0  0  0
 21 35  1  0  0  0  0
 21 36  1  0  0  0  0
 22 23  2  0  0  0  0
 22 24  1  0  0  0  0
 24 37  1  0  0  0  0
M  END
> <OPENEYE_ISO_SMILES>
c1c(nc2n1c3c(s2)CCC3)[C@H]4C(=CN=C(CS4)C(=O)O)C(=O)O

> <OPENEYE_INCHI>
InChI=1S/C15H13N3O4S2/c19-13(20)7-4-16-9(14(21)22)6-23-12(7)8-5-18-10-2-1-3-11(10)24-15(18)17-8/h4-5,12H,1-3,6H2,(H,19,20)(H,21,22)/t12-/m1/s1

> <OPENEYE_INCHIKEY>
CHNMLWCTGYMVFH-GFCCVEGCSA-N

> <FORMULA>
C15H13N3O4S2

$$$$
