REMARK  4 active torsions:
REMARK  status: ('A' for Active; 'I' for Inactive)
REMARK    1  A    between atoms: C_3  and  C_5 
REMARK    2  A    between atoms: C_5  and  O_7 
REMARK    3  A    between atoms: C_10  and  C_11 
REMARK    4  A    between atoms: C_13  and  C_14 
ROOT
HETATM    1  S   UNK A   1      -0.679   3.987   1.679  1.00  0.00    -0.147 SA
HETATM    2  C   UNK A   1      -1.407   3.328   3.197  1.00  0.00     0.141 C 
HETATM    3  C   UNK A   1      -0.277   3.061   4.147  1.00  0.00     0.116 C 
HETATM    4  N   UNK A   1       0.546   2.065   4.115  1.00  0.00    -0.257 NA
HETATM    5  C   UNK A   0       0.379   1.107   3.153  1.00  0.00     0.129 C 
HETATM    6  C   UNK A   0       0.230   1.261   1.826  1.00  0.00     0.017 C 
HETATM    7  C   UNK A   0       0.145   2.507   0.973  1.00  0.00     0.138 C 
ENDROOT
BRANCH   7   8
HETATM    8  C   UNK A   0       1.485   2.887   0.380  1.00  0.00     0.070 A 
HETATM    9  N   UNK A   0       2.531   3.253   1.196  1.00  0.00    -0.235 NA
HETATM   10  C   UNK A   0       3.529   3.510   0.375  1.00  0.00     0.130 A 
HETATM   11  N   UNK A   0       3.146   3.322  -0.928  1.00  0.00    -0.339 N 
HETATM   12  C   UNK A   0       4.895   3.986   0.712  1.00  0.00     0.246 C 
HETATM   13  C   UNK A   0       1.847   2.923  -0.948  1.00  0.00     0.121 A 
HETATM   14  C   UNK A   0       4.049   3.484  -2.047  1.00  0.00     0.156 C 
HETATM   15  C   UNK A   0       5.271   4.289  -1.621  1.00  0.00     0.188 C 
HETATM   16  O   UNK A   0       5.782   3.753  -0.394  1.00  0.00    -0.382 OA
ENDBRANCH   7   8
BRANCH   6  17
HETATM   17  C   UNK A   0       0.122  -0.017   1.091  1.00  0.00     0.268 C 
HETATM   18  O   UNK A   0      -0.018  -0.058  -0.118  1.00  0.00    -0.302 OA
ENDBRANCH   6  17
BRANCH   3  19
HETATM   19  C   UNK A   1      -0.043   4.068   5.222  1.00  0.00     0.192 C 
HETATM   20  O   UNK A   1       0.687   5.016   5.096  1.00  0.00    -0.645 OA
BRANCH  19  21
HETATM   21  O   UNK A   1      -0.769   3.722   6.295  1.00  0.00    -0.772 OA
HETATM   22  H   UNK A   1      -0.641   4.363   7.026  1.00  0.00     0.167 HD
ENDBRANCH  19  21
ENDBRANCH   3  19
TORSDOF 4
