WY4
  -OEChem-07282321093D

 34 36  0     1  0  0  0  0  0999 V2000
   -0.6790    3.9870    1.6790 S   0  0  0  0  0  0  0  0  0  0  0  0
   -1.4070    3.3280    3.1970 C   0  0  0  0  0  0  0  0  0  0  0  0
   -0.2770    3.0610    4.1470 C   0  0  0  0  0  0  0  0  0  0  0  0
    0.5460    2.0650    4.1150 N   0  0  0  0  0  0  0  0  0  0  0  0
    0.3790    1.1070    3.1530 C   0  0  0  0  0  0  0  0  0  0  0  0
    0.2300    1.2610    1.8260 C   0  0  0  0  0  0  0  0  0  0  0  0
    0.1220   -0.0170    1.0910 C   0  0  0  0  0  0  0  0  0  0  0  0
   -0.0180   -0.0580   -0.1180 O   0  0  0  0  0  0  0  0  0  0  0  0
   -0.0430    4.0680    5.2220 C   0  0  0  0  0  0  0  0  0  0  0  0
    0.6870    5.0160    5.0960 O   0  0  0  0  0  0  0  0  0  0  0  0
   -0.7690    3.7220    6.2950 O   0  0  0  0  0  0  0  0  0  0  0  0
    0.1450    2.5070    0.9730 C   0  0  2  0  0  0  0  0  0  0  0  0
    1.4850    2.8870    0.3800 C   0  0  0  0  0  0  0  0  0  0  0  0
    2.5310    3.2530    1.1960 N   0  0  0  0  0  0  0  0  0  0  0  0
    3.5290    3.5100    0.3750 C   0  0  0  0  0  0  0  0  0  0  0  0
    3.1460    3.3220   -0.9280 N   0  0  0  0  0  0  0  0  0  0  0  0
    1.8470    2.9230   -0.9480 C   0  0  0  0  0  0  0  0  0  0  0  0
    4.8950    3.9860    0.7120 C   0  0  0  0  0  0  0  0  0  0  0  0
    5.7820    3.7530   -0.3940 O   0  0  0  0  0  0  0  0  0  0  0  0
    5.2710    4.2890   -1.6210 C   0  0  0  0  0  0  0  0  0  0  0  0
    4.0490    3.4840   -2.0470 C   0  0  0  0  0  0  0  0  0  0  0  0
   -2.0080    2.4340    3.0100 H   0  0  0  0  0  0  0  0  0  0  0  0
   -2.0710    4.0860    3.6240 H   0  0  0  0  0  0  0  0  0  0  0  0
    0.4340    0.0980    3.5600 H   0  0  0  0  0  0  0  0  0  0  0  0
    0.1770   -0.9120    1.7250 H   0  0  0  0  0  0  0  0  0  0  0  0
   -0.4920    2.2620    0.1130 H   0  0  0  0  0  0  0  0  0  0  0  0
    1.3120    2.7000   -1.8600 H   0  0  0  0  0  0  0  0  0  0  0  0
    4.8880    5.0550    0.9480 H   0  0  0  0  0  0  0  0  0  0  0  0
    5.2890    3.4430    1.5760 H   0  0  0  0  0  0  0  0  0  0  0  0
    6.0550    4.2140   -2.3810 H   0  0  0  0  0  0  0  0  0  0  0  0
    5.0330    5.3510   -1.4870 H   0  0  0  0  0  0  0  0  0  0  0  0
    3.5130    3.9720   -2.8670 H   0  0  0  0  0  0  0  0  0  0  0  0
    4.3410    2.4720   -2.3490 H   0  0  0  0  0  0  0  0  0  0  0  0
   -0.6410    4.3630    7.0260 H   0  0  0  0  0  0  0  0  0  0  0  0
  1  2  1  0  0  0  0
  1 12  1  0  0  0  0
  2  3  1  0  0  0  0
  2 22  1  0  0  0  0
  2 23  1  0  0  0  0
  3  4  2  0  0  0  0
  3  9  1  0  0  0  0
  4  5  1  0  0  0  0
  5  6  2  0  0  0  0
  5 24  1  0  0  0  0
  6  7  1  0  0  0  0
  6 12  1  0  0  0  0
  7  8  2  0  0  0  0
  7 25  1  0  0  0  0
  9 10  2  0  0  0  0
  9 11  1  0  0  0  0
 12 13  1  0  0  0  0
 12 26  1  0  0  0  0
 13 14  1  0  0  0  0
 13 17  2  0  0  0  0
 14 15  2  0  0  0  0
 15 16  1  0  0  0  0
 15 18  1  0  0  0  0
 16 17  1  0  0  0  0
 16 21  1  0  0  0  0
 17 27  1  0  0  0  0
 18 19  1  0  0  0  0
 18 28  1  0  0  0  0
 18 29  1  0  0  0  0
 19 20  1  0  0  0  0
 20 21  1  0  0  0  0
 20 30  1  0  0  0  0
 20 31  1  0  0  0  0
 21 32  1  0  0  0  0
 21 33  1  0  0  0  0
 11 34  1  0  0  0  0
M  END
> <OPENEYE_ISO_SMILES>
c1c(nc2n1CCOC2)[C@H]3C(=CN=C(CS3)C(=O)O)C=O

> <OPENEYE_INCHI>
InChI=1S/C13H13N3O4S/c17-5-8-3-14-10(13(18)19)7-21-12(8)9-4-16-1-2-20-6-11(16)15-9/h3-5,12H,1-2,6-7H2,(H,18,19)/t12-/m1/s1

> <OPENEYE_INCHIKEY>
CTKODGPKPNVQNS-GFCCVEGCSA-N

> <FORMULA>
C13H13N3O4S

$$$$
