X57
  -OEChem-07282321093D

 33 33  0     1  0  0  0  0  0999 V2000
   -4.3000    0.6250   -0.4580 O   0  0  0  0  0  0  0  0  0  0  0  0
   -3.6350    1.0820    0.4480 C   0  0  0  0  0  0  0  0  0  0  0  0
   -4.1790    1.9750    1.2990 N   0  0  0  0  0  0  0  0  0  0  0  0
   -2.2040    0.6470    0.6260 C   0  0  2  0  0  0  0  0  0  0  0  0
   -1.3270    1.4000   -0.3360 C   0  0  0  0  0  0  0  0  0  0  0  0
   -0.4520    0.8320   -1.1040 C   0  0  0  0  0  0  0  0  0  0  0  0
    0.3700    1.7180   -2.0040 C   0  0  0  0  0  0  0  0  0  0  0  0
   -0.1990   -0.6450   -1.1600 C   0  0  2  0  0  0  0  0  0  0  0  0
   -0.7420   -1.3280    0.0980 C   0  0  0  0  0  0  0  0  0  0  0  0
   -2.0900   -0.7930    0.3570 N   0  0  0  0  0  0  0  0  0  0  0  0
   -3.1760   -1.5920    0.3470 C   0  0  0  0  0  0  0  0  0  0  0  0
   -3.0460   -2.7900    0.2070 O   0  0  0  0  0  0  0  0  0  0  0  0
    1.2470   -0.8870   -1.2580 N   0  0  0  0  0  0  0  0  0  0  0  0
    1.9510   -0.3310   -0.1010 O   0  0  0  0  0  0  0  0  0  0  0  0
    3.3660   -0.5310   -0.1310 C   0  0  2  0  0  0  0  0  0  0  0  0
    3.6790   -1.7400    0.4980 F   0  0  0  0  0  0  0  0  0  0  0  0
    4.0480    0.6030    0.5900 C   0  0  0  0  0  0  0  0  0  0  0  0
    4.9970    1.3190   -0.0330 O   0  0  0  0  0  0  0  0  0  0  0  0
    3.7410    0.8670    1.7280 O   0  0  0  0  0  0  0  0  0  0  0  0
   -5.1020    2.2510    1.1870 H   0  0  0  0  0  0  0  0  0  0  0  0
   -3.6480    2.3400    2.0230 H   0  0  0  0  0  0  0  0  0  0  0  0
   -1.8840    0.8540    1.6470 H   0  0  0  0  0  0  0  0  0  0  0  0
   -1.4330    2.4730   -0.3910 H   0  0  0  0  0  0  0  0  0  0  0  0
    0.0770    2.7580   -1.8560 H   0  0  0  0  0  0  0  0  0  0  0  0
    1.4260    1.6000   -1.7640 H   0  0  0  0  0  0  0  0  0  0  0  0
    0.1990    1.4380   -3.0430 H   0  0  0  0  0  0  0  0  0  0  0  0
   -0.6940   -1.0630   -2.0360 H   0  0  0  0  0  0  0  0  0  0  0  0
   -0.7960   -2.4050   -0.0600 H   0  0  0  0  0  0  0  0  0  0  0  0
   -0.0910   -1.1120    0.9460 H   0  0  0  0  0  0  0  0  0  0  0  0
   -4.1610   -1.1660    0.4630 H   0  0  0  0  0  0  0  0  0  0  0  0
    1.4430   -1.8710   -1.3620 H   0  0  0  0  0  0  0  0  0  0  0  0
    3.7070   -0.5610   -1.1660 H   0  0  0  0  0  0  0  0  0  0  0  0
    5.4060    2.0370    0.4700 H   0  0  0  0  0  0  0  0  0  0  0  0
  9 10  1  0  0  0  0
  8  9  1  0  0  0  0
 10 11  1  0  0  0  0
 11 12  2  0  0  0  0
  4 10  1  0  0  0  0
  8 13  1  0  0  0  0
  6  8  1  0  0  0  0
  1  2  2  0  0  0  0
 15 16  1  0  0  0  0
 13 14  1  0  0  0  0
 14 15  1  0  0  0  0
  2  4  1  0  0  0  0
  2  3  1  0  0  0  0
  4  5  1  0  0  0  0
 15 17  1  0  0  0  0
  5  6  2  0  0  0  0
  6  7  1  0  0  0  0
 17 19  2  0  0  0  0
 17 18  1  0  0  0  0
  3 20  1  0  0  0  0
  3 21  1  0  0  0  0
  4 22  1  0  0  0  0
  5 23  1  0  0  0  0
  7 24  1  0  0  0  0
  7 25  1  0  0  0  0
  7 26  1  0  0  0  0
  8 27  1  0  0  0  0
  9 28  1  0  0  0  0
  9 29  1  0  0  0  0
 11 30  1  0  0  0  0
 13 31  1  0  0  0  0
 15 32  1  0  0  0  0
 18 33  1  0  0  0  0
M  END
> <OPENEYE_ISO_SMILES>
CC1=C[C@H](N(C[C@@H]1NO[C@@H](C(=O)O)F)C=O)C(=O)N

> <OPENEYE_INCHI>
InChI=1S/C10H14FN3O5/c1-5-2-7(9(12)16)14(4-15)3-6(5)13-19-8(11)10(17)18/h2,4,6-8,13H,3H2,1H3,(H2,12,16)(H,17,18)/t6-,7-,8-/m0/s1

> <OPENEYE_INCHIKEY>
NOCLDVJNWBTORY-FXQIFTODSA-N

> <FORMULA>
C10H14FN3O5

$$$$
