XD1
  -OEChem-07282321093D

 28 28  0     1  0  0  0  0  0999 V2000
    2.8160    0.1670    1.0370 C   0  0  0  0  0  0  0  0  0  0  0  0
    3.0490    0.8860   -1.2720 N   0  0  0  0  0  0  0  0  0  0  0  0
    3.7470   -0.5640    0.7980 O   0  0  0  0  0  0  0  0  0  0  0  0
    2.2750    1.0740   -0.0380 C   0  0  1  0  0  0  0  0  0  0  0  0
    0.8060    0.7340   -0.3000 C   0  0  2  0  0  0  0  0  0  0  0  0
   -2.1210   -1.0860   -1.2420 C   0  0  0  0  0  0  0  0  0  0  0  0
   -1.3250   -2.4410    0.7210 C   0  0  0  0  0  0  0  0  0  0  0  0
   -3.6070    0.6820    0.3850 O   0  0  0  0  0  0  0  0  0  0  0  0
   -1.9850    2.0070   -0.3200 O   0  0  0  0  0  0  0  0  0  0  0  0
    0.0020    0.8300    0.9500 N   0  0  0  0  0  0  0  0  0  0  0  0
    0.6010   -1.0490   -0.7110 S   0  0  0  0  0  0  0  0  0  0  0  0
   -2.3080    0.9950    0.2550 C   0  0  0  0  0  0  0  0  0  0  0  0
   -1.2530    0.0820    0.8250 C   0  0  1  0  0  0  0  0  0  0  0  0
   -1.1230   -1.1560   -0.0850 C   0  0  0  0  0  0  0  0  0  0  0  0
    2.3690    0.1680    2.0200 H   0  0  0  0  0  0  0  0  0  0  0  0
    2.9900   -0.0690   -1.5940 H   0  0  0  0  0  0  0  0  0  0  0  0
    2.7470    1.5280   -1.9890 H   0  0  0  0  0  0  0  0  0  0  0  0
    2.3550    2.1110    0.2870 H   0  0  0  0  0  0  0  0  0  0  0  0
    0.3930    1.3680   -1.0840 H   0  0  0  0  0  0  0  0  0  0  0  0
   -3.1370   -1.0860   -0.8460 H   0  0  0  0  0  0  0  0  0  0  0  0
   -1.9540   -0.1710   -1.8110 H   0  0  0  0  0  0  0  0  0  0  0  0
   -1.9850   -1.9490   -1.8930 H   0  0  0  0  0  0  0  0  0  0  0  0
   -1.1880   -3.3040    0.0690 H   0  0  0  0  0  0  0  0  0  0  0  0
   -0.5980   -2.4790    1.5320 H   0  0  0  0  0  0  0  0  0  0  0  0
   -2.3330   -2.4550    1.1360 H   0  0  0  0  0  0  0  0  0  0  0  0
   -4.2470    1.2980    0.0030 H   0  0  0  0  0  0  0  0  0  0  0  0
    0.5330    0.5140    1.7480 H   0  0  0  0  0  0  0  0  0  0  0  0
   -1.5690   -0.2440    1.8160 H   0  0  0  0  0  0  0  0  0  0  0  0
  1  3  2  0  0  0  0
  1  4  1  0  0  0  0
  1 15  1  0  0  0  0
  2  4  1  0  0  0  0
  2 16  1  0  0  0  0
  2 17  1  0  0  0  0
  4  5  1  0  0  0  0
  4 18  1  0  0  0  0
  5 11  1  0  0  0  0
  5 10  1  0  0  0  0
  5 19  1  0  0  0  0
  6 14  1  0  0  0  0
  6 20  1  0  0  0  0
  6 21  1  0  0  0  0
  6 22  1  0  0  0  0
  7 14  1  0  0  0  0
  7 23  1  0  0  0  0
  7 24  1  0  0  0  0
  7 25  1  0  0  0  0
  8 12  1  0  0  0  0
  8 26  1  0  0  0  0
  9 12  2  0  0  0  0
 10 13  1  0  0  0  0
 10 27  1  0  0  0  0
 11 14  1  0  0  0  0
 12 13  1  0  0  0  0
 13 14  1  0  0  0  0
 13 28  1  0  0  0  0
M  END
> <OPENEYE_ISO_SMILES>
CC1([C@@H](N[C@H](S1)[C@@H](C=O)N)C(=O)O)C

> <OPENEYE_INCHI>
InChI=1S/C8H14N2O3S/c1-8(2)5(7(12)13)10-6(14-8)4(9)3-11/h3-6,10H,9H2,1-2H3,(H,12,13)/t4-,5+,6-/m1/s1

> <OPENEYE_INCHIKEY>
SVTWYXMNISTMAS-NGJCXOISSA-N

> <FORMULA>
C8H14N2O3S

$$$$
