XD2
  -OEChem-07282321093D

 51 53  0     1  0  0  0  0  0999 V2000
   -6.3830    3.1900    0.8440 C   0  0  0  0  0  0  0  0  0  0  0  0
   -2.9980   -3.1950    1.0120 O   0  0  0  0  0  0  0  0  0  0  0  0
    4.8860   -1.7250    1.0110 O   0  0  0  0  0  0  0  0  0  0  0  0
    2.9760   -3.1420   -1.3100 O   0  0  0  0  0  0  0  0  0  0  0  0
   -2.8040   -1.4490    2.3700 O   0  0  0  0  0  0  0  0  0  0  0  0
    6.9880   -0.5040    0.0660 O   0  0  0  0  0  0  0  0  0  0  0  0
    5.0860    4.0290    0.5130 C   0  0  0  0  0  0  0  0  0  0  0  0
    4.6310    3.5240   -0.6900 C   0  0  0  0  0  0  0  0  0  0  0  0
    5.7510    3.2050    1.4020 C   0  0  0  0  0  0  0  0  0  0  0  0
    4.8380    2.1940   -1.0040 C   0  0  0  0  0  0  0  0  0  0  0  0
    5.9580    1.8750    1.0870 C   0  0  0  0  0  0  0  0  0  0  0  0
    2.2140   -2.9010   -0.4050 C   0  0  0  0  0  0  0  0  0  0  0  0
   -3.4220   -0.4890   -0.6140 C   0  0  0  0  0  0  0  0  0  0  0  0
   -1.0950    0.1360   -1.5000 C   0  0  0  0  0  0  0  0  0  0  0  0
   -7.5920    0.2160   -0.7580 N   0  0  0  0  0  0  0  0  0  0  0  0
   -6.3310   -0.0210   -0.7270 N   0  0  0  0  0  0  0  0  0  0  0  0
   -7.8460    1.3620   -0.2250 N   0  0  0  0  0  0  0  0  0  0  0  0
    3.3570   -0.7640   -0.2770 N   0  0  0  0  0  0  0  0  0  0  0  0
   -0.1280   -1.6500    0.7500 N   0  0  0  0  0  0  0  0  0  0  0  0
   -3.9490    1.0890    0.0990 S   0  0  0  0  0  0  0  0  0  0  0  0
    0.5580   -0.6160   -1.6010 S   0  0  0  0  0  0  0  0  0  0  0  0
   -2.4610   -2.0040    1.3450 C   0  0  0  0  0  0  0  0  0  0  0  0
    4.6270   -0.9160    0.1460 C   0  0  0  0  0  0  0  0  0  0  0  0
   -1.9250   -0.6160   -0.5000 C   0  0  0  0  0  0  0  0  0  0  0  0
   -1.4590   -1.3750    0.4650 C   0  0  0  0  0  0  0  0  0  0  0  0
    5.5020    1.3690   -0.1160 C   0  0  0  0  0  0  0  0  0  0  0  0
   -5.6880    0.9770   -0.1610 C   0  0  0  0  0  0  0  0  0  0  0  0
    5.7270   -0.0810   -0.4580 C   0  0  1  0  0  0  0  0  0  0  0  0
    2.2880   -1.5760    0.3090 C   0  0  1  0  0  0  0  0  0  0  0  0
    0.9520   -0.8430    0.1640 C   0  0  2  0  0  0  0  0  0  0  0  0
   -6.6150    1.9020    0.1850 N   0  0  0  0  0  0  0  0  0  0  0  0
   -6.2190    3.9590    0.0900 H   0  0  0  0  0  0  0  0  0  0  0  0
   -7.2530    3.4510    1.4460 H   0  0  0  0  0  0  0  0  0  0  0  0
   -5.5050    3.1160    1.4860 H   0  0  0  0  0  0  0  0  0  0  0  0
   -3.6510   -3.5680    1.6200 H   0  0  0  0  0  0  0  0  0  0  0  0
    7.0620   -0.4220    1.0260 H   0  0  0  0  0  0  0  0  0  0  0  0
    4.9280    5.0690    0.7570 H   0  0  0  0  0  0  0  0  0  0  0  0
    4.1110    4.1680   -1.3840 H   0  0  0  0  0  0  0  0  0  0  0  0
    6.1080    3.5990    2.3420 H   0  0  0  0  0  0  0  0  0  0  0  0
    4.4820    1.7990   -1.9440 H   0  0  0  0  0  0  0  0  0  0  0  0
    6.4770    1.2300    1.7820 H   0  0  0  0  0  0  0  0  0  0  0  0
    1.4800   -3.6350   -0.1070 H   0  0  0  0  0  0  0  0  0  0  0  0
   -3.8980   -1.3080   -0.0750 H   0  0  0  0  0  0  0  0  0  0  0  0
   -3.7110   -0.5280   -1.6640 H   0  0  0  0  0  0  0  0  0  0  0  0
   -1.0030    1.1760   -1.1880 H   0  0  0  0  0  0  0  0  0  0  0  0
   -1.5750    0.0910   -2.4780 H   0  0  0  0  0  0  0  0  0  0  0  0
    3.1500   -0.1170   -0.9700 H   0  0  0  0  0  0  0  0  0  0  0  0
    5.7240   -0.2040   -1.5410 H   0  0  0  0  0  0  0  0  0  0  0  0
    2.4970   -1.7440    1.3660 H   0  0  0  0  0  0  0  0  0  0  0  0
    1.0030    0.1250    0.6610 H   0  0  0  0  0  0  0  0  0  0  0  0
    0.0920   -2.3850    1.3440 H   0  0  0  0  0  0  0  0  0  0  0  0
  7  8  2  0  0  0  0
  7  9  1  0  0  0  0
  8 10  1  0  0  0  0
  9 11  2  0  0  0  0
 10 26  2  0  0  0  0
 11 26  1  0  0  0  0
 26 28  1  0  0  0  0
  1 31  1  0  0  0  0
  6 28  1  0  0  0  0
 23 28  1  0  0  0  0
 13 20  1  0  0  0  0
 20 27  1  0  0  0  0
 13 24  1  0  0  0  0
 27 31  1  0  0  0  0
 17 31  1  0  0  0  0
 16 27  2  0  0  0  0
 14 24  1  0  0  0  0
 14 21  1  0  0  0  0
 18 23  1  0  0  0  0
  3 23  2  0  0  0  0
 24 25  2  0  0  0  0
 15 17  2  0  0  0  0
 18 29  1  0  0  0  0
  5 22  2  0  0  0  0
 15 16  1  0  0  0  0
 22 25  1  0  0  0  0
 19 25  1  0  0  0  0
  2 22  1  0  0  0  0
 21 30  1  0  0  0  0
  4 12  2  0  0  0  0
 29 30  1  0  0  0  0
 12 29  1  0  0  0  0
 19 30  1  0  0  0  0
  1 32  1  0  0  0  0
  1 33  1  0  0  0  0
  1 34  1  0  0  0  0
  2 35  1  0  0  0  0
  6 36  1  0  0  0  0
  7 37  1  0  0  0  0
  8 38  1  0  0  0  0
  9 39  1  0  0  0  0
 10 40  1  0  0  0  0
 11 41  1  0  0  0  0
 12 42  1  0  0  0  0
 13 43  1  0  0  0  0
 13 44  1  0  0  0  0
 14 45  1  0  0  0  0
 14 46  1  0  0  0  0
 18 47  1  0  0  0  0
 28 48  1  0  0  0  0
 29 49  1  0  0  0  0
 30 50  1  0  0  0  0
 19 51  1  0  0  0  0
M  END
> <OPENEYE_ISO_SMILES>
Cn1c(nnn1)SCC2=C(N[C@H](SC2)[C@@H](C=O)NC(=O)[C@@H](c3ccccc3)O)C(=O)O

> <OPENEYE_INCHI>
InChI=1S/C18H20N6O5S2/c1-24-18(21-22-23-24)31-9-11-8-30-16(20-13(11)17(28)29)12(7-25)19-15(27)14(26)10-5-3-2-4-6-10/h2-7,12,14,16,20,26H,8-9H2,1H3,(H,19,27)(H,28,29)/t12-,14-,16-/m1/s1

> <OPENEYE_INCHIKEY>
CTWPBVTUYYLUGC-XNRPHZJLSA-N

> <FORMULA>
C18H20N6O5S2

$$$$
