REMARK  6 active torsions:
REMARK  status: ('A' for Active; 'I' for Inactive)
REMARK    1  A    between atoms: S_1  and  O_2 
REMARK    2  A    between atoms: S_1  and  N_5 
REMARK    3  A    between atoms: N_5  and  C_6 
REMARK       I    between atoms: N_9  and  C_13 
REMARK    4  A    between atoms: C_10  and  C_11 
REMARK    5  A    between atoms: C_11  and  O_23 
REMARK       I    between atoms: C_13  and  N_15 
REMARK    6  A    between atoms: N_15  and  C_16 
ROOT
HETATM    1  C   UNL     1      -2.349  -0.189  -0.943  1.00  0.00     0.129 C 
HETATM    2  C   UNL     1      -1.721  -1.585  -1.196  1.00  0.00     0.048 C 
HETATM    3  C   UNL     1      -0.452  -1.520  -0.311  1.00  0.00     0.131 C 
HETATM    4  N   UNL     1       0.023  -0.129  -0.433  1.00  0.00    -0.317 N 
HETATM    5  C   UNL     1      -1.115   0.726  -0.804  1.00  0.00     0.210 C 
HETATM    6  C   UNL     1       1.288   0.289  -0.236  1.00  0.00     0.319 C 
HETATM    7  O   UNL     1       1.567   1.465  -0.364  1.00  0.00    -0.247 OA
HETATM    8  N   UNL     1       2.246  -0.597   0.103  1.00  0.00    -0.338 N 
HETATM    9  H   UNL     1       2.024  -1.536   0.205  1.00  0.00     0.164 HD
ENDROOT
BRANCH   5  10
HETATM   10  C   UNL     1      -1.356   1.753   0.273  1.00  0.00     0.165 C 
HETATM   11  O   UNL     1      -0.891   1.592   1.376  1.00  0.00    -0.648 OA
BRANCH  10  12
HETATM   12  O   UNL     1      -2.088   2.846   0.005  1.00  0.00    -0.775 OA
HETATM   13  H   UNL     1      -2.215   3.476   0.728  1.00  0.00     0.167 HD
ENDBRANCH  10  12
ENDBRANCH   5  10
BRANCH   1  14
HETATM   14  N   UNL     1      -3.135  -0.191   0.293  1.00  0.00    -0.300 N 
HETATM   15  H   UNL     1      -2.696  -0.056   1.148  1.00  0.00     0.174 HD
BRANCH  14  16
HETATM   16  S   UNL     1      -4.774  -0.424   0.233  1.00  0.00     0.195 S 
HETATM   17  O   UNL     1      -5.267   0.456  -0.768  1.00  0.00    -0.585 OA
HETATM   18  O   UNL     1      -5.232  -0.406   1.578  1.00  0.00    -0.585 OA
BRANCH  16  19
HETATM   19  O   UNL     1      -5.009  -1.837  -0.282  1.00  0.00    -0.279 OA
HETATM   20  H   UNL     1      -5.942  -2.078  -0.357  1.00  0.00     0.234 HD
ENDBRANCH  16  19
ENDBRANCH  14  16
ENDBRANCH   1  14
BRANCH   8  21
HETATM   21  C   UNL     1       3.622  -0.143   0.317  1.00  0.00     0.087 C 
HETATM   22  C   UNL     1       4.297  -1.080   1.208  1.00  0.00     0.027 C 
HETATM   23  C   UNL     1       5.745  -0.647   1.521  1.00  0.00     0.032 C 
HETATM   24  C   UNL     1       6.615  -1.007   0.348  1.00  0.00     0.269 C 
HETATM   25  N   UNL     1       6.773   0.107  -0.613  1.00  0.00     0.083 N 
HETATM   26  C   UNL     1       5.532   0.864  -0.890  1.00  0.00     0.271 C 
HETATM   27  H   UNL     1       7.518   0.726  -0.330  1.00  0.00     0.315 HD
HETATM   28  C   UNL     1       4.329  -0.025  -1.049  1.00  0.00     0.055 C 
ENDBRANCH   8  21
TORSDOF 6
