ZX0
  -OEChem-07282321093D

 45 46  0     1  0  0  0  0  0999 V2000
   -4.7740   -0.4240    0.2330 S   0  0  0  0  0  0  0  0  0  0  0  0
   -5.0090   -1.8370   -0.2820 O   0  0  0  0  0  0  0  0  0  0  0  0
   -5.2670    0.4560   -0.7680 O   0  0  0  0  0  0  0  0  0  0  0  0
   -5.2320   -0.4060    1.5780 O   0  0  0  0  0  0  0  0  0  0  0  0
   -3.1350   -0.1910    0.2930 N   0  0  0  0  0  0  0  0  0  0  0  0
   -2.3490   -0.1890   -0.9430 C   0  0  2  0  0  0  0  0  0  0  0  0
   -1.7210   -1.5850   -1.1960 C   0  0  0  0  0  0  0  0  0  0  0  0
   -0.4520   -1.5200   -0.3110 C   0  0  0  0  0  0  0  0  0  0  0  0
    0.0230   -0.1290   -0.4330 N   0  0  0  0  0  0  0  0  0  0  0  0
   -1.1150    0.7260   -0.8040 C   0  0  2  0  0  0  0  0  0  0  0  0
   -1.3560    1.7530    0.2730 C   0  0  0  0  0  0  0  0  0  0  0  0
   -0.8910    1.5920    1.3760 O   0  0  0  0  0  0  0  0  0  0  0  0
    1.2880    0.2890   -0.2360 C   0  0  0  0  0  0  0  0  0  0  0  0
    1.5670    1.4650   -0.3640 O   0  0  0  0  0  0  0  0  0  0  0  0
    2.2460   -0.5970    0.1030 N   0  0  0  0  0  0  0  0  0  0  0  0
    3.6220   -0.1430    0.3170 C   0  0  1  0  0  0  0  0  0  0  0  0
    4.2970   -1.0800    1.2080 C   0  0  0  0  0  0  0  0  0  0  0  0
    5.7450   -0.6470    1.5210 C   0  0  0  0  0  0  0  0  0  0  0  0
    6.6150   -1.0070    0.3480 C   0  0  0  0  0  0  0  0  0  0  0  0
    6.7730    0.1070   -0.6130 N   0  0  0  0  0  0  0  0  0  0  0  0
    5.5320    0.8640   -0.8900 C   0  0  0  0  0  0  0  0  0  0  0  0
    4.3290   -0.0250   -1.0490 C   0  0  0  0  0  0  0  0  0  0  0  0
   -2.0880    2.8460    0.0050 O   0  0  0  0  0  0  0  0  0  0  0  0
   -5.9420   -2.0780   -0.3570 H   0  0  0  0  0  0  0  0  0  0  0  0
   -2.6960   -0.0560    1.1480 H   0  0  0  0  0  0  0  0  0  0  0  0
   -2.9650    0.1160   -1.7890 H   0  0  0  0  0  0  0  0  0  0  0  0
   -2.3890   -2.3800   -0.8640 H   0  0  0  0  0  0  0  0  0  0  0  0
   -1.4590   -1.7100   -2.2470 H   0  0  0  0  0  0  0  0  0  0  0  0
   -0.9110    1.2220   -1.7530 H   0  0  0  0  0  0  0  0  0  0  0  0
   -0.7010   -1.7470    0.7260 H   0  0  0  0  0  0  0  0  0  0  0  0
    0.3040   -2.2120   -0.6810 H   0  0  0  0  0  0  0  0  0  0  0  0
   -2.2150    3.4760    0.7280 H   0  0  0  0  0  0  0  0  0  0  0  0
    2.0240   -1.5360    0.2050 H   0  0  0  0  0  0  0  0  0  0  0  0
    3.6000    0.8400    0.7880 H   0  0  0  0  0  0  0  0  0  0  0  0
    3.7380   -1.1460    2.1410 H   0  0  0  0  0  0  0  0  0  0  0  0
    4.3160   -2.0630    0.7390 H   0  0  0  0  0  0  0  0  0  0  0  0
    4.6460   -1.0130   -1.3830 H   0  0  0  0  0  0  0  0  0  0  0  0
    3.6460    0.4090   -1.7790 H   0  0  0  0  0  0  0  0  0  0  0  0
    5.7770    0.4300    1.6840 H   0  0  0  0  0  0  0  0  0  0  0  0
    6.0980   -1.1660    2.4120 H   0  0  0  0  0  0  0  0  0  0  0  0
    7.5990   -1.2960    0.7160 H   0  0  0  0  0  0  0  0  0  0  0  0
    6.1720   -1.8580   -0.1700 H   0  0  0  0  0  0  0  0  0  0  0  0
    7.5180    0.7260   -0.3300 H   0  0  0  0  0  0  0  0  0  0  0  0
    5.3510    1.5560   -0.0670 H   0  0  0  0  0  0  0  0  0  0  0  0
    5.6680    1.4390   -1.8060 H   0  0  0  0  0  0  0  0  0  0  0  0
  1  2  1  0  0  0  0
  1  3  2  0  0  0  0
  1  4  2  0  0  0  0
  1  5  1  0  0  0  0
  5  6  1  0  0  0  0
  6  7  1  0  0  0  0
  6 10  1  0  0  0  0
  7  8  1  0  0  0  0
  8  9  1  0  0  0  0
  9 10  1  0  0  0  0
  9 13  1  0  0  0  0
 10 11  1  0  0  0  0
 11 12  2  0  0  0  0
 11 23  1  0  0  0  0
 13 14  2  0  0  0  0
 13 15  1  0  0  0  0
 15 16  1  0  0  0  0
 16 17  1  0  0  0  0
 16 22  1  0  0  0  0
 17 18  1  0  0  0  0
 18 19  1  0  0  0  0
 19 20  1  0  0  0  0
 20 21  1  0  0  0  0
 21 22  1  0  0  0  0
  2 24  1  0  0  0  0
  5 25  1  0  0  0  0
  6 26  1  0  0  0  0
  7 27  1  0  0  0  0
  7 28  1  0  0  0  0
 10 29  1  0  0  0  0
  8 30  1  0  0  0  0
  8 31  1  0  0  0  0
 23 32  1  0  0  0  0
 15 33  1  0  0  0  0
 16 34  1  0  0  0  0
 17 35  1  0  0  0  0
 17 36  1  0  0  0  0
 22 37  1  0  0  0  0
 22 38  1  0  0  0  0
 18 39  1  0  0  0  0
 18 40  1  0  0  0  0
 19 41  1  0  0  0  0
 19 42  1  0  0  0  0
 20 43  1  0  0  0  0
 21 44  1  0  0  0  0
 21 45  1  0  0  0  0
M  END
> <OPENEYE_ISO_SMILES>
C1C[C@@H](CCNC1)NC(=O)N2CC[C@H]([C@H]2C(=O)O)NS(=O)(=O)O

> <OPENEYE_INCHI>
InChI=1S/C12H22N4O6S/c17-11(18)10-9(15-23(20,21)22)4-7-16(10)12(19)14-8-2-1-5-13-6-3-8/h8-10,13,15H,1-7H2,(H,14,19)(H,17,18)(H,20,21,22)/t8-,9+,10-/m0/s1

> <OPENEYE_INCHIKEY>
WWLDRJMXWRULQB-AEJSXWLSSA-N

> <FORMULA>
C12H22N4O6S

$$$$
