ZX1
  -OEChem-07282321093D

 45 46  0     1  0  0  0  0  0999 V2000
   -4.7130   -0.1930    0.4630 S   0  0  0  0  0  0  0  0  0  0  0  0
   -5.2430    0.3780   -0.7250 O   0  0  0  0  0  0  0  0  0  0  0  0
   -5.0640    0.2540    1.7650 O   0  0  0  0  0  0  0  0  0  0  0  0
   -5.0480   -1.6770    0.4140 O   0  0  0  0  0  0  0  0  0  0  0  0
   -3.0660   -0.0590    0.3510 N   0  0  0  0  0  0  0  0  0  0  0  0
   -2.3780   -0.4770   -0.8730 C   0  0  2  0  0  0  0  0  0  0  0  0
   -1.8330   -1.9230   -0.7310 C   0  0  0  0  0  0  0  0  0  0  0  0
   -0.4970   -1.6790    0.0150 C   0  0  0  0  0  0  0  0  0  0  0  0
    0.0260   -0.4210   -0.5490 N   0  0  0  0  0  0  0  0  0  0  0  0
   -1.0980    0.3560   -1.0920 C   0  0  2  0  0  0  0  0  0  0  0  0
   -1.2110    1.6700   -0.3630 C   0  0  0  0  0  0  0  0  0  0  0  0
   -0.6690    1.8160    0.7070 O   0  0  0  0  0  0  0  0  0  0  0  0
    1.3210   -0.0470   -0.5650 C   0  0  0  0  0  0  0  0  0  0  0  0
    1.6390    1.0180   -1.0590 O   0  0  0  0  0  0  0  0  0  0  0  0
    2.2620   -0.8510   -0.0330 N   0  0  0  0  0  0  0  0  0  0  0  0
    3.6690   -0.4430   -0.0500 C   0  0  2  0  0  0  0  0  0  0  0  0
    4.5720   -1.6960    0.0090 C   0  0  0  0  0  0  0  0  0  0  0  0
    5.9390   -1.3950   -0.4000 C   0  0  0  0  0  0  0  0  0  0  0  0
    6.6170   -0.3560    0.5120 C   0  0  0  0  0  0  0  0  0  0  0  0
    6.1880    0.9580    0.1000 N   0  0  0  0  0  0  0  0  0  0  0  0
    5.0420    1.4800    0.8770 C   0  0  0  0  0  0  0  0  0  0  0  0
    3.9580    0.4210    1.1480 C   0  0  0  0  0  0  0  0  0  0  0  0
   -1.9120    2.6790   -0.9040 O   0  0  0  0  0  0  0  0  0  0  0  0
   -5.9940   -1.8690    0.4730 H   0  0  0  0  0  0  0  0  0  0  0  0
   -2.5560    0.2960    1.0960 H   0  0  0  0  0  0  0  0  0  0  0  0
   -3.0440   -0.3990   -1.7330 H   0  0  0  0  0  0  0  0  0  0  0  0
   -2.5070   -2.5370   -0.1340 H   0  0  0  0  0  0  0  0  0  0  0  0
   -1.6580   -2.3720   -1.7080 H   0  0  0  0  0  0  0  0  0  0  0  0
   -0.9470    0.5310   -2.1570 H   0  0  0  0  0  0  0  0  0  0  0  0
   -0.6750   -1.5690    1.0850 H   0  0  0  0  0  0  0  0  0  0  0  0
    0.1970   -2.4970   -0.1730 H   0  0  0  0  0  0  0  0  0  0  0  0
   -1.9560    3.5030   -0.4000 H   0  0  0  0  0  0  0  0  0  0  0  0
    2.0080   -1.7000    0.3610 H   0  0  0  0  0  0  0  0  0  0  0  0
    3.8770    0.1140   -0.9630 H   0  0  0  0  0  0  0  0  0  0  0  0
    4.5820   -2.0790    1.0300 H   0  0  0  0  0  0  0  0  0  0  0  0
    4.1630   -2.4610   -0.6510 H   0  0  0  0  0  0  0  0  0  0  0  0
    3.0390    0.9280    1.4450 H   0  0  0  0  0  0  0  0  0  0  0  0
    4.2860   -0.2150    1.9700 H   0  0  0  0  0  0  0  0  0  0  0  0
    6.5230   -2.3150   -0.3820 H   0  0  0  0  0  0  0  0  0  0  0  0
    5.9240   -1.0110   -1.4210 H   0  0  0  0  0  0  0  0  0  0  0  0
    6.3240   -0.5300    1.5480 H   0  0  0  0  0  0  0  0  0  0  0  0
    7.7000   -0.4360    0.4180 H   0  0  0  0  0  0  0  0  0  0  0  0
    6.9590    1.6100    0.1110 H   0  0  0  0  0  0  0  0  0  0  0  0
    5.4090    1.8570    1.8310 H   0  0  0  0  0  0  0  0  0  0  0  0
    4.5940    2.3060    0.3260 H   0  0  0  0  0  0  0  0  0  0  0  0
  1  2  2  0  0  0  0
  1  3  2  0  0  0  0
  1  4  1  0  0  0  0
  1  5  1  0  0  0  0
  5  6  1  0  0  0  0
  6  7  1  0  0  0  0
  6 10  1  0  0  0  0
  7  8  1  0  0  0  0
  8  9  1  0  0  0  0
  9 10  1  0  0  0  0
  9 13  1  0  0  0  0
 10 11  1  0  0  0  0
 11 12  2  0  0  0  0
 11 23  1  0  0  0  0
 13 14  2  0  0  0  0
 13 15  1  0  0  0  0
 15 16  1  0  0  0  0
 16 17  1  0  0  0  0
 16 22  1  0  0  0  0
 17 18  1  0  0  0  0
 18 19  1  0  0  0  0
 19 20  1  0  0  0  0
 20 21  1  0  0  0  0
 21 22  1  0  0  0  0
  4 24  1  0  0  0  0
  5 25  1  0  0  0  0
  6 26  1  0  0  0  0
  7 27  1  0  0  0  0
  7 28  1  0  0  0  0
 10 29  1  0  0  0  0
  8 30  1  0  0  0  0
  8 31  1  0  0  0  0
 23 32  1  0  0  0  0
 15 33  1  0  0  0  0
 16 34  1  0  0  0  0
 17 35  1  0  0  0  0
 17 36  1  0  0  0  0
 22 37  1  0  0  0  0
 22 38  1  0  0  0  0
 18 39  1  0  0  0  0
 18 40  1  0  0  0  0
 19 41  1  0  0  0  0
 19 42  1  0  0  0  0
 20 43  1  0  0  0  0
 21 44  1  0  0  0  0
 21 45  1  0  0  0  0
M  END
> <OPENEYE_ISO_SMILES>
C1C[C@H](CCNC1)NC(=O)N2CC[C@H]([C@H]2C(=O)O)NS(=O)(=O)O

> <OPENEYE_INCHI>
InChI=1S/C12H22N4O6S/c17-11(18)10-9(15-23(20,21)22)4-7-16(10)12(19)14-8-2-1-5-13-6-3-8/h8-10,13,15H,1-7H2,(H,14,19)(H,17,18)(H,20,21,22)/t8-,9-,10+/m1/s1

> <OPENEYE_INCHIKEY>
WWLDRJMXWRULQB-BBBLOLIVSA-N

> <FORMULA>
C12H22N4O6S

$$$$
