REMARK  10 active torsions:
REMARK  status: ('A' for Active; 'I' for Inactive)
REMARK    1  A    between atoms: B_1  and  C_7 
REMARK    2  A    between atoms: B_1  and  O_3 
REMARK    3  A    between atoms: B_1  and  O_2 
REMARK    4  A    between atoms: N_4  and  C_8 
REMARK    5  A    between atoms: C_7  and  N_9 
REMARK    6  A    between atoms: C_7  and  C_8 
REMARK       I    between atoms: N_9  and  C_10 
REMARK    7  A    between atoms: C_10  and  C_11 
REMARK    8  A    between atoms: C_11  and  C_12 
REMARK    9  A    between atoms: C_17  and  C_19 
REMARK   10  A    between atoms: C_19  and  O_21 
ROOT
HETATM    1  C   UNL     1       0.261  -0.732   0.352  1.00  0.00     0.130 C 
ENDROOT
BRANCH   1   2
HETATM    2  B   UNL     1       0.688  -2.107  -0.273  1.00  0.00     0.516 B 
BRANCH   2   3
HETATM    3  O   UNL     1       0.855  -3.244   0.560  1.00  0.00    -0.436 OA
HETATM    4  H   UNL     1       1.123  -4.043   0.085  1.00  0.00     0.184 HD
ENDBRANCH   2   3
BRANCH   2   5
HETATM    5  O   UNL     1       0.912  -2.211  -1.672  1.00  0.00    -0.436 OA
HETATM    6  H   UNL     1       0.773  -1.386  -2.155  1.00  0.00     0.184 HD
ENDBRANCH   2   5
ENDBRANCH   1   2
BRANCH   1   7
HETATM    7  N   UNL     1      -1.038  -0.879   1.015  1.00  0.00    -0.358 N 
HETATM    8  C   UNL     1      -2.149  -0.380   0.439  1.00  0.00     0.222 C 
HETATM    9  O   UNL     1      -2.075   0.191  -0.629  1.00  0.00    -0.273 OA
HETATM   10  H   UNL     1      -1.097  -1.335   1.869  1.00  0.00     0.162 HD
BRANCH   8  11
HETATM   11  C   UNL     1      -3.484  -0.531   1.121  1.00  0.00     0.148 C 
BRANCH  11  12
HETATM   12  C   UNL     1      -4.556   0.108   0.276  1.00  0.00    -0.009 A 
HETATM   13  C   UNL     1      -5.263  -0.515  -0.669  1.00  0.00     0.015 A 
HETATM   14  C   UNL     1      -6.195   0.278  -1.316  1.00  0.00     0.008 A 
HETATM   15  C   UNL     1      -6.245   1.543  -0.898  1.00  0.00     0.050 A 
HETATM   16  S   UNL     1      -5.070   1.786   0.389  1.00  0.00    -0.106 SA
ENDBRANCH  11  12
ENDBRANCH   8  11
ENDBRANCH   1   7
BRANCH   1  17
HETATM   17  C   UNL     1       1.309  -0.289   1.375  1.00  0.00     0.172 C 
BRANCH  17  18
HETATM   18  N   UNL     1       2.607  -0.142   0.712  1.00  0.00    -0.259 N 
HETATM   19  C   UNL     1       3.391   0.954   0.717  1.00  0.00     0.154 A 
HETATM   20  C   UNL     1       4.499   0.651  -0.025  1.00  0.00     0.171 A 
HETATM   21  N   UNL     1       4.384  -0.615  -0.462  1.00  0.00    -0.124 NA
HETATM   22  N   UNL     1       3.274  -1.116  -0.044  1.00  0.00    -0.066 NA
BRANCH  20  23
HETATM   23  C   UNL     1       5.630   1.556  -0.294  1.00  0.00     0.199 C 
HETATM   24  O   UNL     1       5.625   2.685   0.155  1.00  0.00    -0.645 OA
BRANCH  23  25
HETATM   25  O   UNL     1       6.669   1.133  -1.040  1.00  0.00    -0.772 OA
HETATM   26  H   UNL     1       7.387   1.763  -1.190  1.00  0.00     0.167 HD
ENDBRANCH  23  25
ENDBRANCH  20  23
ENDBRANCH  17  18
ENDBRANCH   1  17
TORSDOF 10
