ZXM
  -OEChem-07282321093D

 35 36  0     1  0  0  0  0  0999 V2000
    0.6880   -2.1070   -0.2730 B   0  0  0  0  0  0  0  0  0  0  0  0
    0.9120   -2.2110   -1.6720 O   0  0  0  0  0  0  0  0  0  0  0  0
    0.8550   -3.2440    0.5600 O   0  0  0  0  0  0  0  0  0  0  0  0
    2.6070   -0.1420    0.7120 N   0  0  0  0  0  0  0  0  0  0  0  0
    3.2740   -1.1160   -0.0440 N   0  0  0  0  0  0  0  0  0  0  0  0
    4.3840   -0.6150   -0.4620 N   0  0  0  0  0  0  0  0  0  0  0  0
    0.2610   -0.7320    0.3520 C   0  0  2  0  0  0  0  0  0  0  0  0
    1.3090   -0.2890    1.3750 C   0  0  0  0  0  0  0  0  0  0  0  0
   -1.0380   -0.8790    1.0150 N   0  0  0  0  0  0  0  0  0  0  0  0
   -2.1490   -0.3800    0.4390 C   0  0  0  0  0  0  0  0  0  0  0  0
   -3.4840   -0.5310    1.1210 C   0  0  0  0  0  0  0  0  0  0  0  0
   -4.5560    0.1080    0.2760 C   0  0  0  0  0  0  0  0  0  0  0  0
   -5.2630   -0.5150   -0.6690 C   0  0  0  0  0  0  0  0  0  0  0  0
   -6.1950    0.2780   -1.3160 C   0  0  0  0  0  0  0  0  0  0  0  0
   -6.2450    1.5430   -0.8980 C   0  0  0  0  0  0  0  0  0  0  0  0
   -2.0750    0.1910   -0.6290 O   0  0  0  0  0  0  0  0  0  0  0  0
    4.4990    0.6510   -0.0250 C   0  0  0  0  0  0  0  0  0  0  0  0
    3.3910    0.9540    0.7170 C   0  0  0  0  0  0  0  0  0  0  0  0
    5.6300    1.5560   -0.2940 C   0  0  0  0  0  0  0  0  0  0  0  0
    5.6250    2.6850    0.1550 O   0  0  0  0  0  0  0  0  0  0  0  0
    6.6690    1.1330   -1.0400 O   0  0  0  0  0  0  0  0  0  0  0  0
   -5.0700    1.7860    0.3890 S   0  0  0  0  0  0  0  0  0  0  0  0
    0.7730   -1.3860   -2.1550 H   0  0  0  0  0  0  0  0  0  0  0  0
    1.1230   -4.0430    0.0850 H   0  0  0  0  0  0  0  0  0  0  0  0
    0.1830    0.0180   -0.4360 H   0  0  0  0  0  0  0  0  0  0  0  0
    1.3860   -1.0380    2.1630 H   0  0  0  0  0  0  0  0  0  0  0  0
    1.0120    0.6650    1.8100 H   0  0  0  0  0  0  0  0  0  0  0  0
   -1.0970   -1.3350    1.8690 H   0  0  0  0  0  0  0  0  0  0  0  0
   -3.7080   -1.5900    1.2520 H   0  0  0  0  0  0  0  0  0  0  0  0
   -3.4520   -0.0440    2.0960 H   0  0  0  0  0  0  0  0  0  0  0  0
   -5.1190   -1.5570   -0.9110 H   0  0  0  0  0  0  0  0  0  0  0  0
   -6.8330   -0.1000   -2.1020 H   0  0  0  0  0  0  0  0  0  0  0  0
   -6.9080    2.3020   -1.2860 H   0  0  0  0  0  0  0  0  0  0  0  0
    3.1820    1.8930    1.2070 H   0  0  0  0  0  0  0  0  0  0  0  0
    7.3870    1.7630   -1.1900 H   0  0  0  0  0  0  0  0  0  0  0  0
 12 13  2  0  0  0  0
 13 14  1  0  0  0  0
 11 12  1  0  0  0  0
 10 11  1  0  0  0  0
 10 16  2  0  0  0  0
 12 22  1  0  0  0  0
 14 15  2  0  0  0  0
  9 10  1  0  0  0  0
  7  9  1  0  0  0  0
 15 22  1  0  0  0  0
  7  8  1  0  0  0  0
  1  7  1  0  0  0  0
  4  8  1  0  0  0  0
  1  3  1  0  0  0  0
  1  2  1  0  0  0  0
  4 18  1  0  0  0  0
 17 18  2  0  0  0  0
  4  5  1  0  0  0  0
 19 20  2  0  0  0  0
 17 19  1  0  0  0  0
  6 17  1  0  0  0  0
  5  6  2  0  0  0  0
 19 21  1  0  0  0  0
  2 23  1  0  0  0  0
  3 24  1  0  0  0  0
  7 25  1  0  0  0  0
  8 26  1  0  0  0  0
  8 27  1  0  0  0  0
  9 28  1  0  0  0  0
 11 29  1  0  0  0  0
 11 30  1  0  0  0  0
 13 31  1  0  0  0  0
 14 32  1  0  0  0  0
 15 33  1  0  0  0  0
 18 34  1  0  0  0  0
 21 35  1  0  0  0  0
M  END
> <OPENEYE_ISO_SMILES>
B([C@H](Cn1cc(nn1)C(=O)O)NC(=O)Cc2cccs2)(O)O

> <OPENEYE_INCHI>
InChI=1S/C11H13BN4O5S/c17-10(4-7-2-1-3-22-7)13-9(12(20)21)6-16-5-8(11(18)19)14-15-16/h1-3,5,9,20-21H,4,6H2,(H,13,17)(H,18,19)/t9-/m0/s1

> <OPENEYE_INCHIKEY>
ZXGRTNOGXAKRBS-VIFPVBQESA-N

> <FORMULA>
C11H13BN4O5S

$$$$
