ZXQ
  -OEChem-07282321093D

 37 38  0     1  0  0  0  0  0999 V2000
    1.8800   -0.5770    0.8830 O   0  0  0  0  0  0  0  0  0  0  0  0
    1.6190    0.2240    0.0100 C   0  0  0  0  0  0  0  0  0  0  0  0
    2.7080    0.7270   -0.9010 C   0  0  0  0  0  0  0  0  0  0  0  0
    4.0180    0.0860   -0.5210 C   0  0  0  0  0  0  0  0  0  0  0  0
    4.4880   -1.0580   -1.0220 C   0  0  0  0  0  0  0  0  0  0  0  0
    5.7160   -1.4520   -0.5210 C   0  0  0  0  0  0  0  0  0  0  0  0
    6.2440   -0.6300    0.3870 C   0  0  0  0  0  0  0  0  0  0  0  0
    5.1630    0.7330    0.6460 S   0  0  0  0  0  0  0  0  0  0  0  0
    0.3530    0.6600   -0.1480 N   0  0  0  0  0  0  0  0  0  0  0  0
   -0.7070    0.1660    0.7350 C   0  0  1  0  0  0  0  0  0  0  0  0
   -1.5820    1.3410    1.1950 C   0  0  0  0  0  0  0  0  0  0  0  0
   -1.7890    2.2700    0.0250 C   0  0  0  0  0  0  0  0  0  0  0  0
   -2.5500    1.9240   -0.9730 C   0  0  0  0  0  0  0  0  0  0  0  0
   -1.6030   -0.8620   -0.0440 B   0  0  0  0  0  0  0  0  0  0  0  0
   -1.7080   -2.2000    0.4200 O   0  0  0  0  0  0  0  0  0  0  0  0
   -2.3110   -0.4600   -1.2100 O   0  0  0  0  0  0  0  0  0  0  0  0
   -3.2590    0.5920   -0.9780 C   0  0  1  0  0  0  0  0  0  0  0  0
   -3.9380    0.3760    0.3760 C   0  0  0  0  0  0  0  0  0  0  0  0
   -5.1780   -0.4590    0.1880 C   0  0  0  0  0  0  0  0  0  0  0  0
   -5.9390   -0.7780    1.2470 O   0  0  0  0  0  0  0  0  0  0  0  0
   -5.4880   -0.8420   -0.9150 O   0  0  0  0  0  0  0  0  0  0  0  0
    2.4650    0.4730   -1.9330 H   0  0  0  0  0  0  0  0  0  0  0  0
    2.7920    1.8100   -0.8040 H   0  0  0  0  0  0  0  0  0  0  0  0
    3.9510   -1.6320   -1.7630 H   0  0  0  0  0  0  0  0  0  0  0  0
    6.2100   -2.3580   -0.8410 H   0  0  0  0  0  0  0  0  0  0  0  0
    7.1910   -0.7770    0.8840 H   0  0  0  0  0  0  0  0  0  0  0  0
    0.1440    1.3010   -0.8460 H   0  0  0  0  0  0  0  0  0  0  0  0
   -0.2620   -0.3200    1.6030 H   0  0  0  0  0  0  0  0  0  0  0  0
   -2.5450    0.9670    1.5410 H   0  0  0  0  0  0  0  0  0  0  0  0
   -1.0810    1.8760    2.0030 H   0  0  0  0  0  0  0  0  0  0  0  0
   -1.3000    3.2330    0.0150 H   0  0  0  0  0  0  0  0  0  0  0  0
   -2.6750    2.5990   -1.8070 H   0  0  0  0  0  0  0  0  0  0  0  0
   -2.2810   -2.7600   -0.1220 H   0  0  0  0  0  0  0  0  0  0  0  0
   -4.0120    0.5830   -1.7660 H   0  0  0  0  0  0  0  0  0  0  0  0
   -3.2520   -0.1390    1.0490 H   0  0  0  0  0  0  0  0  0  0  0  0
   -4.2100    1.3400    0.8040 H   0  0  0  0  0  0  0  0  0  0  0  0
   -6.7250   -1.3150    1.0770 H   0  0  0  0  0  0  0  0  0  0  0  0
 14 15  1  0  0  0  0
 10 14  1  0  0  0  0
 14 16  1  0  0  0  0
 10 11  1  0  0  0  0
 11 12  1  0  0  0  0
  9 10  1  0  0  0  0
 16 17  1  0  0  0  0
  1  2  2  0  0  0  0
  5  6  1  0  0  0  0
  6  7  2  0  0  0  0
  4  5  2  0  0  0  0
  2  9  1  0  0  0  0
  2  3  1  0  0  0  0
 12 13  2  0  0  0  0
 13 17  1  0  0  0  0
 17 18  1  0  0  0  0
  7  8  1  0  0  0  0
  3  4  1  0  0  0  0
  4  8  1  0  0  0  0
 18 19  1  0  0  0  0
 19 21  2  0  0  0  0
 19 20  1  0  0  0  0
  3 22  1  0  0  0  0
  3 23  1  0  0  0  0
  5 24  1  0  0  0  0
  6 25  1  0  0  0  0
  7 26  1  0  0  0  0
  9 27  1  0  0  0  0
 10 28  1  0  0  0  0
 11 29  1  0  0  0  0
 11 30  1  0  0  0  0
 12 31  1  0  0  0  0
 13 32  1  0  0  0  0
 15 33  1  0  0  0  0
 17 34  1  0  0  0  0
 18 35  1  0  0  0  0
 18 36  1  0  0  0  0
 20 37  1  0  0  0  0
M  END
> <OPENEYE_ISO_SMILES>
B1([C@H](CC=C[C@@H](O1)CC(=O)O)NC(=O)Cc2cccs2)O

> <OPENEYE_INCHI>
InChI=1S/C13H16BNO5S/c16-12(8-10-4-2-6-21-10)15-11-5-1-3-9(7-13(17)18)20-14(11)19/h1-4,6,9,11,19H,5,7-8H2,(H,15,16)(H,17,18)/t9-,11+/m1/s1

> <OPENEYE_INCHIKEY>
JQVILEFLUQMOSI-KOLCDFICSA-N

> <FORMULA>
C13H16BNO5S

$$$$
