REMARK  7 active torsions:
REMARK  status: ('A' for Active; 'I' for Inactive)
REMARK       I    between atoms: C_2  and  N_9 
REMARK    1  A    between atoms: C_2  and  C_3 
REMARK    2  A    between atoms: C_3  and  C_4 
REMARK    3  A    between atoms: N_9  and  C_10 
REMARK    4  A    between atoms: B_14  and  O_15 
REMARK    5  A    between atoms: C_17  and  C_18 
REMARK    6  A    between atoms: C_18  and  C_19 
REMARK    7  A    between atoms: C_19  and  O_20 
ROOT
HETATM    1  C   UNL     1      -0.707   0.166   0.735  1.00  0.00     0.114 C 
HETATM    2  C   UNL     1      -1.582   1.341   1.195  1.00  0.00     0.047 C 
HETATM    3  C   UNL     1      -1.789   2.270   0.025  1.00  0.00    -0.027 C 
HETATM    4  C   UNL     1      -2.550   1.924  -0.973  1.00  0.00    -0.001 C 
HETATM    5  B   UNL     1      -1.603  -0.862  -0.044  1.00  0.00     0.518 B 
HETATM    6  O   UNL     1      -2.311  -0.460  -1.210  1.00  0.00    -0.417 OA
HETATM    7  C   UNL     1      -3.259   0.592  -0.978  1.00  0.00     0.135 C 
ENDROOT
BRANCH   1   8
HETATM    8  N   UNL     1       0.353   0.660  -0.148  1.00  0.00    -0.359 N 
HETATM    9  C   UNL     1       1.619   0.224   0.010  1.00  0.00     0.222 C 
HETATM   10  O   UNL     1       1.880  -0.577   0.883  1.00  0.00    -0.273 OA
HETATM   11  H   UNL     1       0.144   1.301  -0.846  1.00  0.00     0.162 HD
BRANCH   9  12
HETATM   12  C   UNL     1       2.708   0.727  -0.901  1.00  0.00     0.148 C 
BRANCH  12  13
HETATM   13  C   UNL     1       4.018   0.086  -0.521  1.00  0.00    -0.009 A 
HETATM   14  C   UNL     1       4.488  -1.058  -1.022  1.00  0.00     0.015 A 
HETATM   15  C   UNL     1       5.716  -1.452  -0.521  1.00  0.00     0.008 A 
HETATM   16  C   UNL     1       6.244  -0.630   0.387  1.00  0.00     0.050 A 
HETATM   17  S   UNL     1       5.163   0.733   0.646  1.00  0.00    -0.106 SA
ENDBRANCH  12  13
ENDBRANCH   9  12
ENDBRANCH   1   8
BRANCH   5  18
HETATM   18  O   UNL     1      -1.708  -2.200   0.420  1.00  0.00    -0.436 OA
HETATM   19  H   UNL     1      -2.281  -2.760  -0.122  1.00  0.00     0.184 HD
ENDBRANCH   5  18
BRANCH   7  20
HETATM   20  C   UNL     1      -3.938   0.376   0.376  1.00  0.00     0.144 C 
BRANCH  20  21
HETATM   21  C   UNL     1      -5.178  -0.459   0.188  1.00  0.00     0.142 C 
HETATM   22  O   UNL     1      -5.488  -0.842  -0.915  1.00  0.00    -0.650 OA
BRANCH  21  23
HETATM   23  O   UNL     1      -5.939  -0.778   1.247  1.00  0.00    -0.776 OA
HETATM   24  H   UNL     1      -6.725  -1.315   1.077  1.00  0.00     0.167 HD
ENDBRANCH  21  23
ENDBRANCH  20  21
ENDBRANCH   7  20
TORSDOF 7
