REMARK  9 active torsions:
REMARK  status: ('A' for Active; 'I' for Inactive)
REMARK    1  A    between atoms: C_2  and  OXT_3 
REMARK    2  A    between atoms: C_2  and  CA_4 
REMARK    3  A    between atoms: C_10  and  CA_11 
REMARK    4  A    between atoms: CA_11  and  C_12 
REMARK    5  A    between atoms: CA_11  and  N_14 
REMARK    6  A    between atoms: C_12  and  OXT_25 
REMARK       I    between atoms: N_14  and  C_15 
REMARK    7  A    between atoms: C_15  and  CA_17 
REMARK    8  A    between atoms: CA_17  and  N_18 
REMARK    9  A    between atoms: CA_17  and  C_19 
ROOT
HETATM    1  CA  UNL     1       0.117  -1.153  -0.643  1.00  0.00     0.226 C 
ENDROOT
BRANCH   1   2
HETATM    2  C   UNL     1       1.212  -0.119  -0.374  1.00  0.00     0.316 C 
HETATM    3  S   UNL     1       1.737  -0.152   1.390  1.00  0.00    -0.119 SA
HETATM    4  C   UNL     1       3.438   0.459   1.058  1.00  0.00     0.044 C 
HETATM    5  CA  UNL     1       3.625   0.200  -0.449  1.00  0.00     0.336 C 
HETATM    6  C   UNL     1       3.543   1.954   1.365  1.00  0.00     0.029 C 
HETATM    7  C   UNL     1       4.465  -0.330   1.872  1.00  0.00     0.029 C 
HETATM    8  N   UNL     1       2.484  -0.494  -1.053  1.00  0.00     0.116 N 
HETATM    9  H   UNL     1       2.432  -0.310  -2.044  1.00  0.00     0.318 HD
BRANCH   5  10
HETATM   10  C   UNL     1       3.817   1.520  -1.149  1.00  0.00     0.175 C 
HETATM   11  O   UNL     1       2.891   2.038  -1.728  1.00  0.00    -0.648 OA
BRANCH  10  12
HETATM   12  OXT UNL     1       5.016   2.124  -1.124  1.00  0.00    -0.775 OA
HETATM   13  HXT UNL     1       5.089   2.972  -1.584  1.00  0.00     0.167 HD
ENDBRANCH  10  12
ENDBRANCH   5  10
ENDBRANCH   1   2
BRANCH   1  14
HETATM   14  C   UNL     1       0.625  -2.527  -0.287  1.00  0.00     0.166 C 
HETATM   15  O   UNL     1       0.062  -3.178   0.561  1.00  0.00    -0.648 OA
BRANCH  14  16
HETATM   16  OXT UNL     1       1.703  -3.026  -0.911  1.00  0.00    -0.775 OA
HETATM   17  HXT UNL     1       1.992  -3.911  -0.649  1.00  0.00     0.167 HD
ENDBRANCH  14  16
ENDBRANCH   1  14
BRANCH   1  18
HETATM   18  N   UNL     1      -1.060  -0.842   0.172  1.00  0.00    -0.342 N 
HETATM   19  C   UNL     1      -2.281  -1.254  -0.222  1.00  0.00     0.256 C 
HETATM   20  O   UNL     1      -2.405  -1.884  -1.251  1.00  0.00    -0.271 OA
HETATM   21  H   UNL     1      -0.960  -0.338   0.995  1.00  0.00     0.163 HD
BRANCH  19  22
HETATM   22  CA  UNL     1      -3.491  -0.934   0.616  1.00  0.00     0.342 C 
BRANCH  22  23
HETATM   23  N   UNL     1      -4.584  -1.854   0.271  1.00  0.00     0.096 N 
HETATM   24  H1  UNL     1      -5.386  -1.701   0.864  1.00  0.00     0.314 HD
HETATM   25  H2  UNL     1      -4.833  -1.770  -0.703  1.00  0.00     0.314 HD
ENDBRANCH  22  23
BRANCH  22  26
HETATM   26  C   UNL     1      -3.926   0.484   0.350  1.00  0.00    -0.016 A 
HETATM   27  C   UNL     1      -3.580   1.491   1.231  1.00  0.00     0.010 A 
HETATM   28  C   UNL     1      -3.978   2.792   0.987  1.00  0.00     0.001 A 
HETATM   29  C   UNL     1      -4.723   3.086  -0.140  1.00  0.00     0.000 A 
HETATM   30  C   UNL     1      -5.068   2.080  -1.023  1.00  0.00     0.001 A 
HETATM   31  C   UNL     1      -4.666   0.780  -0.780  1.00  0.00     0.010 A 
ENDBRANCH  22  26
ENDBRANCH  19  22
ENDBRANCH   1  18
TORSDOF 9
