ZZ7
  -OEChem-07282321093D

 46 47  0     1  0  0  0  0  0999 V2000
    2.8910    2.0380   -1.7280 O   0  0  0  0  0  0  0  0  0  0  0  0
    3.8170    1.5200   -1.1490 C   0  0  0  0  0  0  0  0  0  0  0  0
    5.0160    2.1240   -1.1240 O   0  0  0  0  0  0  0  0  0  0  0  0
    3.6250    0.2000   -0.4490 C   0  0  1  0  0  0  0  0  0  0  0  0
    3.4380    0.4590    1.0580 C   0  0  0  0  0  0  0  0  0  0  0  0
    3.5430    1.9540    1.3650 C   0  0  0  0  0  0  0  0  0  0  0  0
    4.4650   -0.3300    1.8720 C   0  0  0  0  0  0  0  0  0  0  0  0
    1.7370   -0.1520    1.3900 S   0  0  0  0  0  0  0  0  0  0  0  0
    2.4840   -0.4940   -1.0530 N   0  0  0  0  0  0  0  0  0  0  0  0
    1.2120   -0.1190   -0.3740 C   0  0  1  0  0  0  0  0  0  0  0  0
    0.1170   -1.1530   -0.6430 C   0  0  1  0  0  0  0  0  0  0  0  0
    0.6250   -2.5270   -0.2870 C   0  0  0  0  0  0  0  0  0  0  0  0
    0.0620   -3.1780    0.5610 O   0  0  0  0  0  0  0  0  0  0  0  0
   -1.0600   -0.8420    0.1720 N   0  0  0  0  0  0  0  0  0  0  0  0
   -2.2810   -1.2540   -0.2220 C   0  0  0  0  0  0  0  0  0  0  0  0
   -2.4050   -1.8840   -1.2510 O   0  0  0  0  0  0  0  0  0  0  0  0
   -3.4910   -0.9340    0.6160 C   0  0  2  0  0  0  0  0  0  0  0  0
   -4.5840   -1.8540    0.2710 N   0  0  0  0  0  0  0  0  0  0  0  0
   -3.9260    0.4840    0.3500 C   0  0  0  0  0  0  0  0  0  0  0  0
   -3.5800    1.4910    1.2310 C   0  0  0  0  0  0  0  0  0  0  0  0
   -3.9780    2.7920    0.9870 C   0  0  0  0  0  0  0  0  0  0  0  0
   -4.7230    3.0860   -0.1400 C   0  0  0  0  0  0  0  0  0  0  0  0
   -5.0680    2.0800   -1.0230 C   0  0  0  0  0  0  0  0  0  0  0  0
   -4.6660    0.7800   -0.7800 C   0  0  0  0  0  0  0  0  0  0  0  0
    1.7030   -3.0260   -0.9110 O   0  0  0  0  0  0  0  0  0  0  0  0
    5.0890    2.9720   -1.5840 H   0  0  0  0  0  0  0  0  0  0  0  0
    4.5190   -0.4070   -0.5930 H   0  0  0  0  0  0  0  0  0  0  0  0
    2.4320   -0.3100   -2.0440 H   0  0  0  0  0  0  0  0  0  0  0  0
    2.7710    2.4930    0.8160 H   0  0  0  0  0  0  0  0  0  0  0  0
    3.4080    2.1160    2.4350 H   0  0  0  0  0  0  0  0  0  0  0  0
    4.5250    2.3190    1.0640 H   0  0  0  0  0  0  0  0  0  0  0  0
    5.4710   -0.0230    1.5840 H   0  0  0  0  0  0  0  0  0  0  0  0
    4.3160   -0.1330    2.9340 H   0  0  0  0  0  0  0  0  0  0  0  0
    4.3410   -1.3960    1.6790 H   0  0  0  0  0  0  0  0  0  0  0  0
    0.8880    0.8790   -0.6690 H   0  0  0  0  0  0  0  0  0  0  0  0
   -0.1550   -1.1290   -1.6980 H   0  0  0  0  0  0  0  0  0  0  0  0
   -0.9600   -0.3380    0.9950 H   0  0  0  0  0  0  0  0  0  0  0  0
    1.9920   -3.9110   -0.6490 H   0  0  0  0  0  0  0  0  0  0  0  0
   -3.2430   -1.0450    1.6720 H   0  0  0  0  0  0  0  0  0  0  0  0
   -5.3860   -1.7010    0.8640 H   0  0  0  0  0  0  0  0  0  0  0  0
   -4.8330   -1.7700   -0.7030 H   0  0  0  0  0  0  0  0  0  0  0  0
   -2.9980    1.2610    2.1120 H   0  0  0  0  0  0  0  0  0  0  0  0
   -4.9330   -0.0060   -1.4710 H   0  0  0  0  0  0  0  0  0  0  0  0
   -3.7080    3.5780    1.6760 H   0  0  0  0  0  0  0  0  0  0  0  0
   -5.0350    4.1020   -0.3310 H   0  0  0  0  0  0  0  0  0  0  0  0
   -5.6500    2.3100   -1.9030 H   0  0  0  0  0  0  0  0  0  0  0  0
  1  2  2  0  0  0  0
  2  3  1  0  0  0  0
  2  4  1  0  0  0  0
  4  5  1  0  0  0  0
  4  9  1  0  0  0  0
  5  6  1  0  0  0  0
  5  7  1  0  0  0  0
  5  8  1  0  0  0  0
  8 10  1  0  0  0  0
  9 10  1  0  0  0  0
 10 11  1  0  0  0  0
 11 12  1  0  0  0  0
 11 14  1  0  0  0  0
 12 13  2  0  0  0  0
 12 25  1  0  0  0  0
 14 15  1  0  0  0  0
 15 16  2  0  0  0  0
 15 17  1  0  0  0  0
 17 18  1  0  0  0  0
 17 19  1  0  0  0  0
 19 20  1  0  0  0  0
 19 24  2  0  0  0  0
 20 21  2  0  0  0  0
 21 22  1  0  0  0  0
 22 23  2  0  0  0  0
 23 24  1  0  0  0  0
  3 26  1  0  0  0  0
  4 27  1  0  0  0  0
  9 28  1  0  0  0  0
  6 29  1  0  0  0  0
  6 30  1  0  0  0  0
  6 31  1  0  0  0  0
  7 32  1  0  0  0  0
  7 33  1  0  0  0  0
  7 34  1  0  0  0  0
 10 35  1  0  0  0  0
 11 36  1  0  0  0  0
 14 37  1  0  0  0  0
 25 38  1  0  0  0  0
 17 39  1  0  0  0  0
 18 40  1  0  0  0  0
 18 41  1  0  0  0  0
 20 42  1  0  0  0  0
 24 43  1  0  0  0  0
 21 44  1  0  0  0  0
 22 45  1  0  0  0  0
 23 46  1  0  0  0  0
M  END
> <OPENEYE_ISO_SMILES>
CC1([C@@H](N[C@H](S1)[C@@H](C(=O)O)NC(=O)[C@@H](c2ccccc2)N)C(=O)O)C

> <OPENEYE_INCHI>
InChI=1S/C16H21N3O5S/c1-16(2)11(15(23)24)19-13(25-16)10(14(21)22)18-12(20)9(17)8-6-4-3-5-7-8/h3-7,9-11,13,19H,17H2,1-2H3,(H,18,20)(H,21,22)(H,23,24)/t9-,10+,11+,13-/m1/s1

> <OPENEYE_INCHIKEY>
KDAWOPKDXRJNHV-MPPDQPJWSA-N

> <FORMULA>
C16H21N3O5S

$$$$
