start_structures/Ligand_Substrate/Ligand_Complex_Stripped/0NB_4E3L.pdb
 OpenBabel08222315203D

 26 27  0  0  1  0  0  0  0  0999 V2000
   26.3530    1.4860   16.0750 N   0  0  0  0  0  0  0  0  0  0  0  0
   27.7070    1.9440   16.3690 C   0  0  2  0  0  0  0  0  0  0  0  0
   28.5540    1.0370   17.2270 C   0  0  0  0  0  0  0  0  0  0  0  0
   29.7410    1.3140   17.4090 O   0  0  0  0  0  0  0  0  0  0  0  0
   27.6790    3.3340   16.9620 C   0  0  0  0  0  0  0  0  0  0  0  0
   27.2050    4.2120   15.9680 O   0  0  0  0  0  0  0  0  0  0  0  0
   25.9540    4.9170   16.2590 B   0  0  0  0  0  0  0  0  0  0  0  0
   26.1390    5.7480   17.4440 O   0  0  0  0  0  0  0  0  0  0  0  0
   24.9000    3.9160   16.4900 O   0  0  0  0  0  0  0  0  0  0  0  0
   25.5960    5.8390   15.0320 C   0  0  0  0  0  0  0  0  0  0  0  0
   24.3850    6.6510   15.2090 N   0  0  0  0  0  0  0  0  0  0  0  0
   23.7790    7.5840   14.0230 S   0  0  0  0  0  0  0  0  0  0  0  0
   22.9230    8.6090   14.5960 O   0  0  0  0  0  0  0  0  0  0  0  0
   24.8040    8.2500   13.2470 O   0  0  0  0  0  0  0  0  0  0  0  0
   22.7570    6.6180   12.9530 C   0  0  0  0  0  0  0  0  0  0  0  0
   23.3050    5.8530   11.9370 C   0  0  0  0  0  0  0  0  0  0  0  0
   22.4990    5.0900   11.1050 C   0  0  0  0  0  0  0  0  0  0  0  0
   21.1120    5.0970   11.2760 C   0  0  0  0  0  0  0  0  0  0  0  0
   20.2910    4.3350   10.4250 C   0  0  0  0  0  0  0  0  0  0  0  0
   20.4170    4.1600    9.0770 N   0  0  0  0  0  0  0  0  0  0  0  0
   19.4020    3.3600    8.6320 N   0  0  0  0  0  0  0  0  0  0  0  0
   18.6500    3.0120    9.7190 N   0  0  0  0  0  0  0  0  0  0  0  0
   19.1970    3.6360   10.7990 N   0  0  0  0  0  0  0  0  0  0  0  0
   20.5770    5.8820   12.3100 C   0  0  0  0  0  0  0  0  0  0  0  0
   18.8760    6.0120   12.6620 Cl  0  0  0  0  0  0  0  0  0  0  0  0
   21.3940    6.6180   13.1380 C   0  0  0  0  0  0  0  0  0  0  0  0
  2  1  1  1  0  0  0
  2  5  1  0  0  0  0
  2  3  1  0  0  0  0
  3  4  2  0  0  0  0
  6  7  1  0  0  0  0
  6  5  1  0  0  0  0
  7  8  1  0  0  0  0
  7  9  1  0  0  0  0
  7 10  1  0  0  0  0
 10 11  1  0  0  0  0
 11 12  1  0  0  0  0
 12 13  2  0  0  0  0
 12 14  2  0  0  0  0
 12 15  1  0  0  0  0
 15 16  2  0  0  0  0
 15 26  1  0  0  0  0
 16 17  1  0  0  0  0
 17 18  2  0  0  0  0
 18 19  1  0  0  0  0
 18 24  1  0  0  0  0
 19 20  2  0  0  0  0
 19 23  1  0  0  0  0
 20 21  1  0  0  0  0
 21 22  1  0  0  0  0
 22 23  2  0  0  0  0
 24 25  1  0  0  0  0
 24 26  2  0  0  0  0
M  END
>  <HEADER>
    HYDROLASE/HYDROLASE INHIBITOR           09-MAR-12   4E3L              

>  <TITLE>
    CRYSTAL STRUCTURE OF AMPC BETA-LACTAMASE IN COMPLEX WITH A 3-CHLORO-4-
   2 TETRAZOLYL BENZENE SULFONAMIDE BORONIC ACID INHIBITOR                

>  <COMPND>
    MOL_ID: 1;                                                            
   2 MOLECULE: BETA-LACTAMASE;                                            
   3 CHAIN: A, B;                                                         
   4 SYNONYM: CEPHALOSPORINASE;                                           
   5 EC: 3.5.2.6;                                                         
   6 ENGINEERED: YES                                                      

>  <SOURCE>
    MOL_ID: 1;                                                            
   2 ORGANISM_SCIENTIFIC: ESCHERICHIA COLI;                               
   3 ORGANISM_TAXID: 83333;                                               
   4 STRAIN: K12;                                                         
   5 GENE: AMPA, AMPC, B4150, JW4111;                                     
   6 EXPRESSION_SYSTEM: ESCHERICHIA COLI;                                 
   7 EXPRESSION_SYSTEM_TAXID: 562;                                        
   8 EXPRESSION_SYSTEM_STRAIN: JM109;                                     
   9 EXPRESSION_SYSTEM_VECTOR_TYPE: PLASMID;                              
  10 EXPRESSION_SYSTEM_PLASMID: POGO295                                   

>  <KEYWDS>
    AMPC BETA-LACTAMASE, CLASS C, CEPHALOSPORINASE, HYDROLASE-HYDROLASE   
   2 INHIBITOR COMPLEX                                                    

>  <EXPDTA>
    X-RAY DIFFRACTION                                                     

>  <AUTHOR>
    O.EIDAM,B.K.SHOICHET                                                  

>  <REVDAT>
   2   07-NOV-12 4E3L    1       JRNL                                     
   1   26-SEP-12 4E3L    0                                                

>  <JRNL>
      AUTH   O.EIDAM,C.ROMAGNOLI,G.DALMASSO,S.BARELIER,E.CASELLI,         
      AUTH 2 R.BONNET,B.K.SHOICHET,F.PRATI                                
      TITL   FRAGMENT-GUIDED DESIGN OF SUBNANOMOLAR BETA-LACTAMASE        
      TITL 2 INHIBITORS ACTIVE IN VIVO.                                   
      REF    PROC.NATL.ACAD.SCI.USA        V. 109 17448 2012              
      REFN                   ISSN 0027-8424                               
      PMID   23043117                                                     
      DOI    10.1073/PNAS.1208337109                                      

>  <REMARK>
   2                                                                      
   2 RESOLUTION.    1.43 ANGSTROMS.                                       
   3                                                                      
   3 REFINEMENT.                                                          
   3   PROGRAM     : PHENIX (PHENIX.REFINE: 1.7.1_743)                    
   3   AUTHORS     : PAUL ADAMS,PAVEL AFONINE,VICENT CHEN,IAN             
   3               : DAVIS,KRESHNA GOPAL,RALF GROSSE-                     
   3               : KUNSTLEVE,LI-WEI HUNG,ROBERT IMMORMINO,              
   3               : TOM IOERGER,AIRLIE MCCOY,ERIK MCKEE,NIGEL            
   3               : MORIARTY,REETAL PAI,RANDY READ,JANE                  
   3               : RICHARDSON,DAVID RICHARDSON,TOD ROMO,JIM             
   3               : SACCHETTINI,NICHOLAS SAUTER,JACOB SMITH,             
   3               : LAURENT STORONI,TOM TERWILLIGER,PETER                
   3               : ZWART                                                
   3                                                                      
   3    REFINEMENT TARGET : ML                                            
   3                                                                      
   3  DATA USED IN REFINEMENT.                                            
   3   RESOLUTION RANGE HIGH (ANGSTROMS) : 1.43                           
   3   RESOLUTION RANGE LOW  (ANGSTROMS) : 29.57                          
   3   MIN(FOBS/SIGMA_FOBS)              : 1.990                          
   3   COMPLETENESS FOR RANGE        (%) : 97.8                           
   3   NUMBER OF REFLECTIONS             : 141064                         
   3                                                                      
   3  FIT TO DATA USED IN REFINEMENT.                                     
   3   R VALUE     (WORKING + TEST SET) : 0.159                           
   3   R VALUE            (WORKING SET) : 0.158                           
   3   FREE R VALUE                     : 0.185                           
   3   FREE R VALUE TEST SET SIZE   (%) : 3.760                           
   3   FREE R VALUE TEST SET COUNT      : 5308                            
   3                                                                      
   3  FIT TO DATA USED IN REFINEMENT (IN BINS).                           
   3   BIN  RESOLUTION RANGE  COMPL.    NWORK NFREE   RWORK  RFREE        
   3     1 29.5721 -  4.4384    0.93     4426   174  0.1695 0.2007        
   3     2  4.4384 -  3.5248    0.99     4626   198  0.1373 0.1422        
   3     3  3.5248 -  3.0797    0.99     4634   169  0.1609 0.1701        
   3     4  3.0797 -  2.7984    0.99     4609   210  0.1799 0.1821        
   3     5  2.7984 -  2.5980    0.99     4590   191  0.1688 0.2006        
   3     6  2.5980 -  2.4449    0.99     4606   169  0.1572 0.1649        
   3     7  2.4449 -  2.3225    0.99     4615   173  0.1517 0.1930        
   3     8  2.3225 -  2.2214    0.99     4596   172  0.1467 0.1858        
   3     9  2.2214 -  2.1359    0.99     4560   184  0.1506 0.1915        
   3    10  2.1359 -  2.0622    0.99     4534   193  0.1520 0.1857        
   3    11  2.0622 -  1.9978    0.99     4593   167  0.1480 0.1943        
   3    12  1.9978 -  1.9407    0.99     4552   181  0.1415 0.1832        
   3    13  1.9407 -  1.8896    0.98     4589   135  0.1379 0.1505        
   3    14  1.8896 -  1.8435    0.98     4569   138  0.1314 0.1835        
   3    15  1.8435 -  1.8016    0.98     4517   181  0.1292 0.1677        
   3    16  1.8016 -  1.7633    0.98     4552   180  0.1325 0.1755        
   3    17  1.7633 -  1.7280    0.98     4488   174  0.1370 0.1694        
   3    18  1.7280 -  1.6954    0.98     4634    91  0.1403 0.1778        
   3    19  1.6954 -  1.6651    0.98     4482   186  0.1457 0.1814        
   3    20  1.6651 -  1.6369    0.98     4473   187  0.1434 0.1966        
   3    21  1.6369 -  1.6105    0.97     4510   188  0.1527 0.2055        
   3    22  1.6105 -  1.5857    0.97     4476   186  0.1543 0.2077        
   3    23  1.5857 -  1.5624    0.97     4432   185  0.1623 0.1956        
   3    24  1.5624 -  1.5404    0.97     4469   186  0.1884 0.2286        
   3    25  1.5404 -  1.5196    0.97     4466   186  0.1981 0.2527        
   3    26  1.5196 -  1.4998    0.97     4458   186  0.2135 0.2450        
   3    27  1.4998 -  1.4811    0.97     4425   184  0.2188 0.2792        
   3    28  1.4811 -  1.4632    0.96     4409   184  0.2373 0.2513        
   3    29  1.4632 -  1.4462    0.96     4461   186  0.2380 0.3018        
   3    30  1.4462 -  1.4300    0.96     4405   184  0.2555 0.2934        
   3                                                                      
   3  BULK SOLVENT MODELLING.                                             
   3   METHOD USED        : FLAT BULK SOLVENT MODEL                       
   3   SOLVENT RADIUS     : 1.30                                          
   3   SHRINKAGE RADIUS   : 1.06                                          
   3   K_SOL              : 0.37                                          
   3   B_SOL              : 35.76                                         
   3                                                                      
   3  ERROR ESTIMATES.                                                    
   3   COORDINATE ERROR (MAXIMUM-LIKELIHOOD BASED)     : 0.420            
   3   PHASE ERROR (DEGREES, MAXIMUM-LIKELIHOOD BASED) : 17.520           
   3                                                                      
   3  B VALUES.                                                           
   3   FROM WILSON PLOT           (A**2) : 24.54                          
   3   MEAN B VALUE      (OVERALL, A**2) : 21.11                          
   3   OVERALL ANISOTROPIC B VALUE.                                       
   3    B11 (A**2) : 2.45430                                              
   3    B22 (A**2) : -2.28270                                             
   3    B33 (A**2) : -0.17150                                             
   3    B12 (A**2) : 0.00000                                              
   3    B13 (A**2) : 1.48390                                              
   3    B23 (A**2) : -0.00000                                             
   3                                                                      
   3  TWINNING INFORMATION.                                               
   3   FRACTION: NULL                                                     
   3   OPERATOR: NULL                                                     
   3                                                                      
   3  DEVIATIONS FROM IDEAL VALUES.                                       
   3                 RMSD          COUNT                                  
   3   BOND      :  0.010           5876                                  
   3   ANGLE     :  1.381           8083                                  
   3   CHIRALITY :  0.087            875                                  
   3   PLANARITY :  0.008           1037                                  
   3   DIHEDRAL  : 15.108           2130                                  
   3                                                                      
   3  TLS DETAILS                                                         
   3   NUMBER OF TLS GROUPS  : NULL                                       
   3                                                                      
   3  NCS DETAILS                                                         
   3   NUMBER OF NCS GROUPS : NULL                                        
   3                                                                      
   3  OTHER REFINEMENT REMARKS: NULL                                      
   4                                                                      
   4 4E3L COMPLIES WITH FORMAT V. 3.30, 13-JUL-11                         
 100                                                                      
 100 THIS ENTRY HAS BEEN PROCESSED BY RCSB ON 16-MAR-12.                  
 100 THE RCSB ID CODE IS RCSB071125.                                      
 200                                                                      
 200 EXPERIMENTAL DETAILS                                                 
 200  EXPERIMENT TYPE                : X-RAY DIFFRACTION                  
 200  DATE OF DATA COLLECTION        : NULL                               
 200  TEMPERATURE           (KELVIN) : 80                                 
 200  PH                             : 8.8                                
 200  NUMBER OF CRYSTALS USED        : 1                                  
 200                                                                      
 200  SYNCHROTRON              (Y/N) : Y                                  
 200  RADIATION SOURCE               : ALS                                
 200  BEAMLINE                       : 8.3.1                              
 200  X-RAY GENERATOR MODEL          : NULL                               
 200  MONOCHROMATIC OR LAUE    (M/L) : M                                  
 200  WAVELENGTH OR RANGE        (A) : 1.11587                            
 200  MONOCHROMATOR                  : NULL                               
 200  OPTICS                         : NULL                               
 200                                                                      
 200  DETECTOR TYPE                  : CCD                                
 200  DETECTOR MANUFACTURER          : ADSC QUANTUM 315R                  
 200  INTENSITY-INTEGRATION SOFTWARE : NULL                               
 200  DATA SCALING SOFTWARE          : XSCALE                             
 200                                                                      
 200  NUMBER OF UNIQUE REFLECTIONS   : 141077                             
 200  RESOLUTION RANGE HIGH      (A) : 1.430                              
 200  RESOLUTION RANGE LOW       (A) : 29.566                             
 200  REJECTION CRITERIA  (SIGMA(I)) : -3.000                             
 200                                                                      
 200 OVERALL.                                                             
 200  COMPLETENESS FOR RANGE     (%) : 97.6                               
 200  DATA REDUNDANCY                : NULL                               
 200  R MERGE                    (I) : 0.04200                            
 200  R SYM                      (I) : NULL                               
 200  <I/SIGMA(I)> FOR THE DATA SET  : 16.4600                            
 200                                                                      
 200 IN THE HIGHEST RESOLUTION SHELL.                                     
 200  HIGHEST RESOLUTION SHELL, RANGE HIGH (A) : 1.43                     
 200  HIGHEST RESOLUTION SHELL, RANGE LOW  (A) : 1.47                     
 200  COMPLETENESS FOR SHELL     (%) : 96.3                               
 200  DATA REDUNDANCY IN SHELL       : NULL                               
 200  R MERGE FOR SHELL          (I) : 0.67800                            
 200  R SYM FOR SHELL            (I) : NULL                               
 200  <I/SIGMA(I)> FOR SHELL         : 2.070                              
 200                                                                      
 200 DIFFRACTION PROTOCOL: SINGLE WAVELENGTH                              
 200 METHOD USED TO DETERMINE THE STRUCTURE: MOLECULAR REPLACEMENT        
 200 SOFTWARE USED: NULL                                                  
 200 STARTING MODEL: PDB ENTRY 1KE4                                       
 200                                                                      
 200 REMARK: NULL                                                         
 280                                                                      
 280 CRYSTAL                                                              
 280 SOLVENT CONTENT, VS   (%): 50.99                                     
 280 MATTHEWS COEFFICIENT, VM (ANGSTROMS**3/DA): 2.51                     
 280                                                                      
 280 CRYSTALLIZATION CONDITIONS: 1.7 M POTASSIUM PHOSPHATE, PH 8.8,       
 280  VAPOR DIFFUSION, HANGING DROP, TEMPERATURE 293K                     
 290                                                                      
 290 CRYSTALLOGRAPHIC SYMMETRY                                            
 290 SYMMETRY OPERATORS FOR SPACE GROUP: C 1 2 1                          
 290                                                                      
 290      SYMOP   SYMMETRY                                                
 290     NNNMMM   OPERATOR                                                
 290       1555   X,Y,Z                                                   
 290       2555   -X,Y,-Z                                                 
 290       3555   X+1/2,Y+1/2,Z                                           
 290       4555   -X+1/2,Y+1/2,-Z                                         
 290                                                                      
 290     WHERE NNN -> OPERATOR NUMBER                                     
 290           MMM -> TRANSLATION VECTOR                                  
 290                                                                      
 290 CRYSTALLOGRAPHIC SYMMETRY TRANSFORMATIONS                            
 290 THE FOLLOWING TRANSFORMATIONS OPERATE ON THE ATOM/HETATM             
 290 RECORDS IN THIS ENTRY TO PRODUCE CRYSTALLOGRAPHICALLY                
 290 RELATED MOLECULES.                                                   
 290   SMTRY1   1  1.000000  0.000000  0.000000        0.00000            
 290   SMTRY2   1  0.000000  1.000000  0.000000        0.00000            
 290   SMTRY3   1  0.000000  0.000000  1.000000        0.00000            
 290   SMTRY1   2 -1.000000  0.000000  0.000000        0.00000            
 290   SMTRY2   2  0.000000  1.000000  0.000000        0.00000            
 290   SMTRY3   2  0.000000  0.000000 -1.000000        0.00000            
 290   SMTRY1   3  1.000000  0.000000  0.000000       58.82500            
 290   SMTRY2   3  0.000000  1.000000  0.000000       38.61000            
 290   SMTRY3   3  0.000000  0.000000  1.000000        0.00000            
 290   SMTRY1   4 -1.000000  0.000000  0.000000       58.82500            
 290   SMTRY2   4  0.000000  1.000000  0.000000       38.61000            
 290   SMTRY3   4  0.000000  0.000000 -1.000000        0.00000            
 290                                                                      
 290 REMARK: NULL                                                         
 300                                                                      
 300 BIOMOLECULE: 1, 2                                                    
 300 SEE REMARK 350 FOR THE AUTHOR PROVIDED AND/OR PROGRAM                
 300 GENERATED ASSEMBLY INFORMATION FOR THE STRUCTURE IN                  
 300 THIS ENTRY. THE REMARK MAY ALSO PROVIDE INFORMATION ON               
 300 BURIED SURFACE AREA.                                                 
 350                                                                      
 350 COORDINATES FOR A COMPLETE MULTIMER REPRESENTING THE KNOWN           
 350 BIOLOGICALLY SIGNIFICANT OLIGOMERIZATION STATE OF THE                
 350 MOLECULE CAN BE GENERATED BY APPLYING BIOMT TRANSFORMATIONS          
 350 GIVEN BELOW.  BOTH NON-CRYSTALLOGRAPHIC AND                          
 350 CRYSTALLOGRAPHIC OPERATIONS ARE GIVEN.                               
 350                                                                      
 350 BIOMOLECULE: 1                                                       
 350 AUTHOR DETERMINED BIOLOGICAL UNIT: MONOMERIC                         
 350 APPLY THE FOLLOWING TO CHAINS: A                                     
 350   BIOMT1   1  1.000000  0.000000  0.000000        0.00000            
 350   BIOMT2   1  0.000000  1.000000  0.000000        0.00000            
 350   BIOMT3   1  0.000000  0.000000  1.000000        0.00000            
 350                                                                      
 350 BIOMOLECULE: 2                                                       
 350 AUTHOR DETERMINED BIOLOGICAL UNIT: MONOMERIC                         
 350 APPLY THE FOLLOWING TO CHAINS: B                                     
 350   BIOMT1   1  1.000000  0.000000  0.000000        0.00000            
 350   BIOMT2   1  0.000000  1.000000  0.000000        0.00000            
 350   BIOMT3   1  0.000000  0.000000  1.000000        0.00000            
 470                                                                      
 470 MISSING ATOM                                                         
 470 THE FOLLOWING RESIDUES HAVE MISSING ATOMS (M=MODEL NUMBER;           
 470 RES=RESIDUE NAME; C=CHAIN IDENTIFIER; SSEQ=SEQUENCE NUMBER;          
 470 I=INSERTION CODE):                                                   
 470   M RES CSSEQI  ATOMS                                                
 470     GLU A  21    CD   OE1  OE2                                       
 470     GLN A  22    CG   CD   OE1  NE2                                  
 470     LYS A  24    CD   CE   NZ                                        
 470     LYS A  37    CG   CD   CE   NZ                                   
 470     LYS A  99    CG   CD   CE   NZ                                   
 470     ASP A 123    OD1  OD2                                            
 470     GLU A 124    CG   CD   OE1  OE2                                  
 470     LYS A 126    CE   NZ                                             
 470     ARG A 204    NE   CZ   NH1  NH2                                  
 470     GLU A 205    CD   OE1  OE2                                       
 470     LYS A 207    CD   CE   NZ                                        
 470     LYS A 239    CE   NZ                                             
 470     LYS A 246    CG   CD   CE   NZ                                   
 470     SER A 282    OG                                                  
 470     LYS A 290    CG   CD   CE   NZ                                   
 470     ARG A 296    NE   CZ   NH1  NH2                                  
 470     LYS A 299    CE   NZ                                             
 470     GLN B   7    CD   OE1  NE2                                       
 470     LYS B  24    CE   NZ                                             
 470     LYS B  37    CG   CD   CE   NZ                                   
 470     LYS B  50    CG   CD   CE   NZ                                   
 470     GLN B  52    CD   OE1  NE2                                       
 470     GLN B  56    CD   OE1  NE2                                       
 470     LYS B 126    CG   CD   CE   NZ                                   
 470     GLU B 205    CG   CD   OE1  OE2                                  
 470     LYS B 207    CG   CD   CE   NZ                                   
 470     LYS B 239    CE   NZ                                             
 470     ASN B 244    CG   OD1  ND2                                       
 470     LYS B 246    CG   CD   CE   NZ                                   
 470     LYS B 299    CD   CE   NZ                                        
 470     GLU B 333    CD   OE1  OE2                                       
 500                                                                      
 500 GEOMETRY AND STEREOCHEMISTRY                                         
 500 SUBTOPIC: TORSION ANGLES                                             
 500                                                                      
 500 TORSION ANGLES OUTSIDE THE EXPECTED RAMACHANDRAN REGIONS:            
 500 (M=MODEL NUMBER; RES=RESIDUE NAME; C=CHAIN IDENTIFIER;               
 500 SSEQ=SEQUENCE NUMBER; I=INSERTION CODE).                             
 500                                                                      
 500 STANDARD TABLE:                                                      
 500 FORMAT:(10X,I3,1X,A3,1X,A1,I4,A1,4X,F7.2,3X,F7.2)                    
 500                                                                      
 500 EXPECTED VALUES: GJ KLEYWEGT AND TA JONES (1996). PHI/PSI-           
 500 CHOLOGY: RAMACHANDRAN REVISITED. STRUCTURE 4, 1395 - 1400            
 500                                                                      
 500  M RES CSSEQI        PSI       PHI                                   
 500    VAL A 178      -59.29   -121.53                                   
 500    TYR A 221       20.36   -155.84                                   
 500    ASN A 341       44.62   -100.26                                   
 500    LYS B 126      -61.70   -124.22                                   
 500    SER B 154      -66.21    -91.11                                   
 500    VAL B 178      -58.96   -122.75                                   
 500    TYR B 221       22.76   -159.44                                   
 500    ASN B 341       41.38    -98.10                                   
 500                                                                      
 500 REMARK: NULL                                                         
 800                                                                      
 800 SITE                                                                 
 800 SITE_IDENTIFIER: AC1                                                 
 800 EVIDENCE_CODE: SOFTWARE                                              
 800 SITE_DESCRIPTION: BINDING SITE FOR RESIDUE 0NB A 401                 
 800                                                                      
 800 SITE_IDENTIFIER: AC2                                                 
 800 EVIDENCE_CODE: SOFTWARE                                              
 800 SITE_DESCRIPTION: BINDING SITE FOR RESIDUE PO4 A 402                 
 800                                                                      
 800 SITE_IDENTIFIER: AC3                                                 
 800 EVIDENCE_CODE: SOFTWARE                                              
 800 SITE_DESCRIPTION: BINDING SITE FOR RESIDUE PO4 A 403                 
 800                                                                      
 800 SITE_IDENTIFIER: AC4                                                 
 800 EVIDENCE_CODE: SOFTWARE                                              
 800 SITE_DESCRIPTION: BINDING SITE FOR RESIDUE PO4 A 404                 
 800                                                                      
 800 SITE_IDENTIFIER: AC5                                                 
 800 EVIDENCE_CODE: SOFTWARE                                              
 800 SITE_DESCRIPTION: BINDING SITE FOR RESIDUE PO4 A 405                 
 800                                                                      
 800 SITE_IDENTIFIER: AC6                                                 
 800 EVIDENCE_CODE: SOFTWARE                                              
 800 SITE_DESCRIPTION: BINDING SITE FOR RESIDUE 0NB B 401                 
 800                                                                      
 800 SITE_IDENTIFIER: AC7                                                 
 800 EVIDENCE_CODE: SOFTWARE                                              
 800 SITE_DESCRIPTION: BINDING SITE FOR RESIDUE 0NB B 402                 
 800                                                                      
 800 SITE_IDENTIFIER: AC8                                                 
 800 EVIDENCE_CODE: SOFTWARE                                              
 800 SITE_DESCRIPTION: BINDING SITE FOR RESIDUE PO4 B 403                 
 800                                                                      
 800 SITE_IDENTIFIER: AC9                                                 
 800 EVIDENCE_CODE: SOFTWARE                                              
 800 SITE_DESCRIPTION: BINDING SITE FOR RESIDUE PO4 B 404                 
 900                                                                      
 900 RELATED ENTRIES                                                      
 900 RELATED ID: 4E3I   RELATED DB: PDB                                   
 900 RELATED ID: 4E3J   RELATED DB: PDB                                   
 900 RELATED ID: 4E3K   RELATED DB: PDB                                   
 900 RELATED ID: 4E3M   RELATED DB: PDB                                   
 900 RELATED ID: 4E3N   RELATED DB: PDB                                   
 900 RELATED ID: 4E3O   RELATED DB: PDB                                   

>  <DBREF>
 4E3L A    4   361  UNP    P00811   AMPC_ECOLI      20    377             
 4E3L B    4   361  UNP    P00811   AMPC_ECOLI      20    377             

>  <SEQRES>
   1 A  358  ALA PRO GLN GLN ILE ASN ASP ILE VAL HIS ARG THR ILE          
   2 A  358  THR PRO LEU ILE GLU GLN GLN LYS ILE PRO GLY MET ALA          
   3 A  358  VAL ALA VAL ILE TYR GLN GLY LYS PRO TYR TYR PHE THR          
   4 A  358  TRP GLY TYR ALA ASP ILE ALA LYS LYS GLN PRO VAL THR          
   5 A  358  GLN GLN THR LEU PHE GLU LEU GLY SER VAL SER LYS THR          
   6 A  358  PHE THR GLY VAL LEU GLY GLY ASP ALA ILE ALA ARG GLY          
   7 A  358  GLU ILE LYS LEU SER ASP PRO THR THR LYS TYR TRP PRO          
   8 A  358  GLU LEU THR ALA LYS GLN TRP ASN GLY ILE THR LEU LEU          
   9 A  358  HIS LEU ALA THR TYR THR ALA GLY GLY LEU PRO LEU GLN          
  10 A  358  VAL PRO ASP GLU VAL LYS SER SER SER ASP LEU LEU ARG          
  11 A  358  PHE TYR GLN ASN TRP GLN PRO ALA TRP ALA PRO GLY THR          
  12 A  358  GLN ARG LEU TYR ALA ASN SER SER ILE GLY LEU PHE GLY          
  13 A  358  ALA LEU ALA VAL LYS PRO SER GLY LEU SER PHE GLU GLN          
  14 A  358  ALA MET GLN THR ARG VAL PHE GLN PRO LEU LYS LEU ASN          
  15 A  358  HIS THR TRP ILE ASN VAL PRO PRO ALA GLU GLU LYS ASN          
  16 A  358  TYR ALA TRP GLY TYR ARG GLU GLY LYS ALA VAL HIS VAL          
  17 A  358  SER PRO GLY ALA LEU ASP ALA GLU ALA TYR GLY VAL LYS          
  18 A  358  SER THR ILE GLU ASP MET ALA ARG TRP VAL GLN SER ASN          
  19 A  358  LEU LYS PRO LEU ASP ILE ASN GLU LYS THR LEU GLN GLN          
  20 A  358  GLY ILE GLN LEU ALA GLN SER ARG TYR TRP GLN THR GLY          
  21 A  358  ASP MET TYR GLN GLY LEU GLY TRP GLU MET LEU ASP TRP          
  22 A  358  PRO VAL ASN PRO ASP SER ILE ILE ASN GLY SER ASP ASN          
  23 A  358  LYS ILE ALA LEU ALA ALA ARG PRO VAL LYS ALA ILE THR          
  24 A  358  PRO PRO THR PRO ALA VAL ARG ALA SER TRP VAL HIS LYS          
  25 A  358  THR GLY ALA THR GLY GLY PHE GLY SER TYR VAL ALA PHE          
  26 A  358  ILE PRO GLU LYS GLU LEU GLY ILE VAL MET LEU ALA ASN          
  27 A  358  LYS ASN TYR PRO ASN PRO ALA ARG VAL ASP ALA ALA TRP          
  28 A  358  GLN ILE LEU ASN ALA LEU GLN                                  
   1 B  358  ALA PRO GLN GLN ILE ASN ASP ILE VAL HIS ARG THR ILE          
   2 B  358  THR PRO LEU ILE GLU GLN GLN LYS ILE PRO GLY MET ALA          
   3 B  358  VAL ALA VAL ILE TYR GLN GLY LYS PRO TYR TYR PHE THR          
   4 B  358  TRP GLY TYR ALA ASP ILE ALA LYS LYS GLN PRO VAL THR          
   5 B  358  GLN GLN THR LEU PHE GLU LEU GLY SER VAL SER LYS THR          
   6 B  358  PHE THR GLY VAL LEU GLY GLY ASP ALA ILE ALA ARG GLY          
   7 B  358  GLU ILE LYS LEU SER ASP PRO THR THR LYS TYR TRP PRO          
   8 B  358  GLU LEU THR ALA LYS GLN TRP ASN GLY ILE THR LEU LEU          
   9 B  358  HIS LEU ALA THR TYR THR ALA GLY GLY LEU PRO LEU GLN          
  10 B  358  VAL PRO ASP GLU VAL LYS SER SER SER ASP LEU LEU ARG          
  11 B  358  PHE TYR GLN ASN TRP GLN PRO ALA TRP ALA PRO GLY THR          
  12 B  358  GLN ARG LEU TYR ALA ASN SER SER ILE GLY LEU PHE GLY          
  13 B  358  ALA LEU ALA VAL LYS PRO SER GLY LEU SER PHE GLU GLN          
  14 B  358  ALA MET GLN THR ARG VAL PHE GLN PRO LEU LYS LEU ASN          
  15 B  358  HIS THR TRP ILE ASN VAL PRO PRO ALA GLU GLU LYS ASN          
  16 B  358  TYR ALA TRP GLY TYR ARG GLU GLY LYS ALA VAL HIS VAL          
  17 B  358  SER PRO GLY ALA LEU ASP ALA GLU ALA TYR GLY VAL LYS          
  18 B  358  SER THR ILE GLU ASP MET ALA ARG TRP VAL GLN SER ASN          
  19 B  358  LEU LYS PRO LEU ASP ILE ASN GLU LYS THR LEU GLN GLN          
  20 B  358  GLY ILE GLN LEU ALA GLN SER ARG TYR TRP GLN THR GLY          
  21 B  358  ASP MET TYR GLN GLY LEU GLY TRP GLU MET LEU ASP TRP          
  22 B  358  PRO VAL ASN PRO ASP SER ILE ILE ASN GLY SER ASP ASN          
  23 B  358  LYS ILE ALA LEU ALA ALA ARG PRO VAL LYS ALA ILE THR          
  24 B  358  PRO PRO THR PRO ALA VAL ARG ALA SER TRP VAL HIS LYS          
  25 B  358  THR GLY ALA THR GLY GLY PHE GLY SER TYR VAL ALA PHE          
  26 B  358  ILE PRO GLU LYS GLU LEU GLY ILE VAL MET LEU ALA ASN          
  27 B  358  LYS ASN TYR PRO ASN PRO ALA ARG VAL ASP ALA ALA TRP          
  28 B  358  GLN ILE LEU ASN ALA LEU GLN                                  

>  <HET>
 0NB  A 401      20                                                       
 PO4  A 402       5                                                       
 PO4  A 403       5                                                       
 PO4  A 404       5                                                       
 PO4  A 405       5                                                       
 0NB  B 401      27                                                       
 0NB  B 402      20                                                       
 PO4  B 403       5                                                       
 PO4  B 404       5                                                       

>  <HETNAM>
     0NB [({[3-CHLORO-4-(1H-TETRAZOL-5-YL)                                
   2 0NB  PHENYL]SULFONYL}AMINO)METHYL]BORONIC ACID                       
     PO4 PHOSPHATE ION                                                    

>  <FORMUL>
   3  0NB    3(C8 H9 B CL N5 O4 S)                                        
   4  PO4    6(O4 P 3-)                                                   
  12  HOH   *589(H2 O)                                                    

>  <HELIX>
   1   1 PRO A    5  LYS A   24  1                                  20    
   2   2 VAL A   65  ARG A   80  1                                  16    
   3   3 PRO A   88  TRP A   93  1                                   6    
   4   4 ALA A   98  ASN A  102  5                                   5    
   5   5 THR A  105  THR A  111  1                                   7    
   6   6 SER A  127  TRP A  138  1                                  12    
   7   7 ALA A  151  VAL A  163  1                                  13    
   8   8 SER A  169  VAL A  178  1                                  10    
   9   9 PRO A  192  TYR A  199  5                                   8    
  10  10 LEU A  216  GLY A  222  1                                   7    
  11  11 THR A  226  LYS A  239  1                                  14    
  12  12 PRO A  240  ILE A  243  5                                   4    
  13  13 GLU A  245  GLN A  256  1                                  12    
  14  14 ASN A  279  ASP A  288  1                                  10    
  15  15 ASP A  288  LEU A  293  1                                   6    
  16  16 PRO A  330  GLU A  333  5                                   4    
  17  17 PRO A  345  GLN A  361  1                                  17    
  18  18 PRO B    5  LYS B   24  1                                  20    
  19  19 VAL B   65  ARG B   80  1                                  16    
  20  20 PRO B   88  TRP B   93  1                                   6    
  21  21 ALA B   98  ASN B  102  5                                   5    
  22  22 THR B  105  THR B  111  1                                   7    
  23  23 SER B  127  TRP B  138  1                                  12    
  24  24 ALA B  151  VAL B  163  1                                  13    
  25  25 SER B  169  VAL B  178  1                                  10    
  26  26 PRO B  192  TYR B  199  5                                   8    
  27  27 LEU B  216  GLY B  222  1                                   7    
  28  28 THR B  226  LYS B  239  1                                  14    
  29  29 PRO B  240  ILE B  243  5                                   4    
  30  30 GLU B  245  GLN B  256  1                                  12    
  31  31 ASN B  279  SER B  287  1                                   9    
  32  32 ASP B  288  LEU B  293  1                                   6    
  33  33 PRO B  330  GLU B  333  5                                   4    
  34  34 PRO B  345  GLN B  361  1                                  17    

>  <SHEET>
   1   A10 GLN A  52  PRO A  53  0                                        
   2   A10 LYS A  37  ASP A  47 -1  N  ALA A  46   O  GLN A  52           
   3   A10 GLY A  27  TYR A  34 -1  N  VAL A  30   O  PHE A  41           
   4   A10 LEU A 334  ALA A 340 -1  O  LEU A 339   N  ALA A  29           
   5   A10 PHE A 322  ILE A 329 -1  N  TYR A 325   O  MET A 338           
   6   A10 SER A 311  THR A 319 -1  N  GLY A 317   O  SER A 324           
   7   A10 GLU A 272  ASP A 275 -1  N  GLU A 272   O  HIS A 314           
   8   A10 MET A 265  GLN A 267 -1  N  TYR A 266   O  MET A 273           
   9   A10 ARG A 258  THR A 262 -1  N  TYR A 259   O  GLN A 267           
  10   A10 LYS A 299  THR A 305 -1  O  THR A 305   N  ARG A 258           
   1   B 2 PHE A  60  GLU A  61  0                                        
   2   B 2 LYS A 224  SER A 225 -1  O  SER A 225   N  PHE A  60           
   1   C 2 GLN A 147  ARG A 148  0                                        
   2   C 2 ARG A 296  PRO A 297 -1  O  ARG A 296   N  ARG A 148           
   1   D 2 GLY A 202  ARG A 204  0                                        
   2   D 2 LYS A 207  VAL A 209 -1  O  VAL A 209   N  GLY A 202           
   1   E10 GLN B  52  PRO B  53  0                                        
   2   E10 LYS B  37  ASP B  47 -1  N  ALA B  46   O  GLN B  52           
   3   E10 GLY B  27  TYR B  34 -1  N  TYR B  34   O  LYS B  37           
   4   E10 LEU B 334  ALA B 340 -1  O  LEU B 339   N  ALA B  29           
   5   E10 PHE B 322  ILE B 329 -1  N  TYR B 325   O  MET B 338           
   6   E10 SER B 311  THR B 319 -1  N  GLY B 317   O  SER B 324           
   7   E10 GLU B 272  ASP B 275 -1  N  LEU B 274   O  TRP B 312           
   8   E10 MET B 265  GLN B 267 -1  N  TYR B 266   O  MET B 273           
   9   E10 ARG B 258  THR B 262 -1  N  THR B 262   O  MET B 265           
  10   E10 LYS B 299  THR B 305 -1  O  THR B 305   N  ARG B 258           
   1   F 2 PHE B  60  GLU B  61  0                                        
   2   F 2 LYS B 224  SER B 225 -1  O  SER B 225   N  PHE B  60           
   1   G 2 GLN B 147  ARG B 148  0                                        
   2   G 2 ARG B 296  PRO B 297 -1  O  ARG B 296   N  ARG B 148           
   1   H 2 GLY B 202  ARG B 204  0                                        
   2   H 2 LYS B 207  VAL B 209 -1  O  VAL B 209   N  GLY B 202           

>  <LINK>
       OG  SER B  64                 B03 0NB B 402     1555   1555  1.46  
       OG  SER A  64                 B03 0NB A 401     1555   1555  1.47  

>  <CISPEP>
   1 TRP A  276    PRO A  277          0         7.60                     
   2 THR A  302    PRO A  303          0        -3.14                     
   3 TRP B  276    PRO B  277          0         3.27                     
   4 THR B  302    PRO B  303          0         0.17                     

>  <SITE>
   1 AC1 10 SER A  64  TYR A 150  ASN A 152  VAL A 211                    
   2 AC1 10 SER A 212  ALA A 318  GLY A 320  HOH A 785                    
   3 AC1 10 HOH A 787  HOH A 788                                          
   1 AC2  7 PHE A  41  THR A  42  HOH A 577  HOH A 601                    
   2 AC2  7 HOH A 759  HOH A 813  GLY B 116                               
   1 AC3  6 THR A 262  GLY A 263  PRO A 297  HOH A 606                    
   2 AC3  6 TYR B  45  LYS B  51                                          
   1 AC4  7 TRP A  93  LEU A 157  LYS A 164  HOH A 616                    
   2 AC4  7 HOH A 682  HOH A 768  HOH A 797                               
   1 AC5  5 PRO A 140  ALA A 141  TRP A 142  ALA A 143                    
   2 AC5  5 HOH A 771                                                     
   1 AC6 17 LEU A  85  GLN A 250  LEU A 254  SER A 257                    
   2 AC6 17 TYR A 259  PRO A 304  HOH A 534  GLN B 250                    
   3 AC6 17 GLN B 253  LEU B 254  SER B 257  PRO B 303                    
   4 AC6 17 PRO B 304  PRO B 306  HOH B 628  HOH B 641                    
   5 AC6 17 HOH B 758                                                     
   1 AC7 14 SER B  64  GLN B 120  TYR B 150  ASN B 152                    
   2 AC7 14 VAL B 211  SER B 212  GLY B 317  ALA B 318                    
   3 AC7 14 GLY B 320  HOH B 739  HOH B 741  HOH B 747                    
   4 AC7 14 HOH B 755  HOH B 774                                          
   1 AC8  6 ARG A 133  HIS A 186  HOH A 711  HOH A 743                    
   2 AC8  6 HOH A 748  LYS B 290                                          
   1 AC9  2 ARG B  80  HOH B 567                                          

>  <ORIGX1>
      1.000000  0.000000  0.000000        0.00000                         

>  <ORIGX2>
      0.000000  1.000000  0.000000        0.00000                         

>  <ORIGX3>
      0.000000  0.000000  1.000000        0.00000                         

>  <SCALE1>
      0.008500  0.000000  0.004222        0.00000                         

>  <SCALE2>
      0.000000  0.012950  0.000000        0.00000                         

>  <SCALE3>
      0.000000  0.000000  0.011430        0.00000                         

>  <ANISOU>
  474  N   SER A  64      841   1492   1192   -473    -33   -149       N  
  475  CA  SER A  64      904   1480   1565   -425    125    -33       C  
  476  C   SER A  64      915   1473   1142   -119    164     58       C  
  477  O   SER A  64      924   2025   1339   -105    246   -332       O  
  478  CB  SER A  64     1084   1610   1990    -83     68     95       C  
  479  OG  SER A  64     1056   1758   1805   -123    218    -71       O  
 5605  B03 0NB A 401     1091   1842   2270    -77     63   -241       B  
 5606  O04 0NB A 401     1324   1832   2588   -166    141   -371       O  
 5607  O05 0NB A 401     1379   1932   2283   -120    340     11       O  
 5608  C06 0NB A 401     1139   2311   2663     64    128   -267       C  
 5609  N07 0NB A 401     1334   2741   2855    257    -78    219       N  
 5610  S08 0NB A 401     1636   2988   3494    102    173    -97       S  
 5611  O09 0NB A 401     1820   2948   3876    195    207   -548       O  
 5612  O10 0NB A 401     1867   3235   3629     58    222      2       O  
 5613  C11 0NB A 401     1696   2990   3493    -65    104   -548       C  
 5614  C12 0NB A 401     1683   3353   3587     51    250   -773       C  
 5615  C13 0NB A 401     1729   3383   3462     -7    -17   -339       C  
 5616  C14 0NB A 401     1771   3062   3474   -245    115    133       C  
 5617  C15 0NB A 401     1908   2920   2890   -321     37    232       C  
 5618  N16 0NB A 401     1877   2918   2796   -415   -139    325       N  
 5619  N17 0NB A 401     2022   2875   2642   -474     21    239       N  
 5620  N18 0NB A 401     2043   2637   2730   -365     70     84       N  
 5621  N19 0NB A 401     2054   2625   2628   -327    219    114       N  
 5622  C20 0NB A 401     1868   3254   3962    -94    236     22       C  
 5623 CL2  0NB A 401     2054   3528   4875     59    406   -223      CL  
 5624  C22 0NB A 401     2003   3144   3878   -110    391    -79       C  

>  <MASTER>
      331    0    9   34   32    0   23    6 6180    2  100   56          

$$$$
