start_structures/Ligand_Substrate/Ligand_Complex_Stripped/0ND_4E3M.pdb
 OpenBabel08222315203D

 26 27  0  0  1  0  0  0  0  0999 V2000
   26.5190    1.5790   16.0410 N   0  0  0  0  0  0  0  0  0  0  0  0
   27.8730    2.0230   16.3160 C   0  0  2  0  0  0  0  0  0  0  0  0
   28.7370    1.1270   17.1980 C   0  0  0  0  0  0  0  0  0  0  0  0
   29.9220    1.4080   17.3800 O   0  0  0  0  0  0  0  0  0  0  0  0
   27.8660    3.4480   16.8640 C   0  0  0  0  0  0  0  0  0  0  0  0
   27.3680    4.3070   15.8620 O   0  0  0  0  0  0  0  0  0  0  0  0
   26.1440    5.0250   16.1850 B   0  0  0  0  0  0  0  0  0  0  0  0
   25.1090    4.0090   16.4270 O   0  0  0  0  0  0  0  0  0  0  0  0
   26.3260    5.8480   17.3830 O   0  0  0  0  0  0  0  0  0  0  0  0
   25.7540    5.9090   14.9390 C   0  0  0  0  0  0  0  0  0  0  0  0
   24.6300    6.7810   15.1840 N   0  0  0  0  0  0  0  0  0  0  0  0
   23.9930    7.6770   13.9960 S   0  0  0  0  0  0  0  0  0  0  0  0
   25.0120    8.2740   13.1960 O   0  0  0  0  0  0  0  0  0  0  0  0
   23.1930    8.7440   14.5620 O   0  0  0  0  0  0  0  0  0  0  0  0
   22.9830    6.6840   12.9390 C   0  0  0  0  0  0  0  0  0  0  0  0
   23.4010    6.4740   11.6290 C   0  0  0  0  0  0  0  0  0  0  0  0
   22.6250    5.7290   10.7460 C   0  0  0  0  0  0  0  0  0  0  0  0
   21.4080    5.1840   11.1880 C   0  0  0  0  0  0  0  0  0  0  0  0
   20.5700    4.4290   10.3660 C   0  0  0  0  0  0  0  0  0  0  0  0
   19.4630    3.7710   10.7770 N   0  0  0  0  0  0  0  0  0  0  0  0
   18.8840    3.1770    9.6940 N   0  0  0  0  0  0  0  0  0  0  0  0
   19.6320    3.5080    8.6010 N   0  0  0  0  0  0  0  0  0  0  0  0
   20.6590    4.2940    9.0290 N   0  0  0  0  0  0  0  0  0  0  0  0
   21.0130    5.3880   12.4980 C   0  0  0  0  0  0  0  0  0  0  0  0
   21.7880    6.1140   13.3740 C   0  0  0  0  0  0  0  0  0  0  0  0
   21.2240    6.3130   15.0050 Cl  0  0  0  0  0  0  0  0  0  0  0  0
  2  1  1  1  0  0  0
  2  5  1  0  0  0  0
  2  3  1  0  0  0  0
  3  4  2  0  0  0  0
  6  7  1  0  0  0  0
  6  5  1  0  0  0  0
  7  8  1  0  0  0  0
  7  9  1  0  0  0  0
  7 10  1  0  0  0  0
 10 11  1  0  0  0  0
 11 12  1  0  0  0  0
 12 13  2  0  0  0  0
 12 14  2  0  0  0  0
 12 15  1  0  0  0  0
 15 16  2  0  0  0  0
 15 25  1  0  0  0  0
 16 17  1  0  0  0  0
 17 18  2  0  0  0  0
 18 19  1  0  0  0  0
 18 24  1  0  0  0  0
 19 20  2  0  0  0  0
 19 23  1  0  0  0  0
 20 21  1  0  0  0  0
 21 22  1  0  0  0  0
 22 23  2  0  0  0  0
 24 25  2  0  0  0  0
 25 26  1  0  0  0  0
M  END
>  <HEADER>
    HYDROLASE/HYDROLASE INHIBITOR           09-MAR-12   4E3M              

>  <TITLE>
    CRYSTAL STRUCTURE OF AMPC BETA-LACTAMASE IN COMPLEX WITH A 2-CHLORO-4-
   2 TETRAZOLYL BENZENE SULFONAMIDE BORONIC ACID INHIBITOR                

>  <COMPND>
    MOL_ID: 1;                                                            
   2 MOLECULE: BETA-LACTAMASE;                                            
   3 CHAIN: A, B;                                                         
   4 SYNONYM: CEPHALOSPORINASE;                                           
   5 EC: 3.5.2.6;                                                         
   6 ENGINEERED: YES                                                      

>  <SOURCE>
    MOL_ID: 1;                                                            
   2 ORGANISM_SCIENTIFIC: ESCHERICHIA COLI;                               
   3 ORGANISM_TAXID: 83333;                                               
   4 STRAIN: K12;                                                         
   5 GENE: AMPA, AMPC, B4150, JW4111;                                     
   6 EXPRESSION_SYSTEM: ESCHERICHIA COLI;                                 
   7 EXPRESSION_SYSTEM_TAXID: 562;                                        
   8 EXPRESSION_SYSTEM_STRAIN: JM109;                                     
   9 EXPRESSION_SYSTEM_VECTOR_TYPE: PLASMID;                              
  10 EXPRESSION_SYSTEM_PLASMID: POGO295                                   

>  <KEYWDS>
    AMPC BETA-LACTAMASE, CLASS C, CEPHALOSPORINASE, HYDROLASE-HYDROLASE   
   2 INHIBITOR COMPLEX                                                    

>  <EXPDTA>
    X-RAY DIFFRACTION                                                     

>  <AUTHOR>
    O.EIDAM,B.K.SHOICHET                                                  

>  <REVDAT>
   2   07-NOV-12 4E3M    1       JRNL                                     
   1   26-SEP-12 4E3M    0                                                

>  <JRNL>
      AUTH   O.EIDAM,C.ROMAGNOLI,G.DALMASSO,S.BARELIER,E.CASELLI,         
      AUTH 2 R.BONNET,B.K.SHOICHET,F.PRATI                                
      TITL   FRAGMENT-GUIDED DESIGN OF SUBNANOMOLAR BETA-LACTAMASE        
      TITL 2 INHIBITORS ACTIVE IN VIVO.                                   
      REF    PROC.NATL.ACAD.SCI.USA        V. 109 17448 2012              
      REFN                   ISSN 0027-8424                               
      PMID   23043117                                                     
      DOI    10.1073/PNAS.1208337109                                      

>  <REMARK>
   2                                                                      
   2 RESOLUTION.    1.44 ANGSTROMS.                                       
   3                                                                      
   3 REFINEMENT.                                                          
   3   PROGRAM     : PHENIX (PHENIX.REFINE: 1.7.1_743)                    
   3   AUTHORS     : PAUL ADAMS,PAVEL AFONINE,VICENT CHEN,IAN             
   3               : DAVIS,KRESHNA GOPAL,RALF GROSSE-                     
   3               : KUNSTLEVE,LI-WEI HUNG,ROBERT IMMORMINO,              
   3               : TOM IOERGER,AIRLIE MCCOY,ERIK MCKEE,NIGEL            
   3               : MORIARTY,REETAL PAI,RANDY READ,JANE                  
   3               : RICHARDSON,DAVID RICHARDSON,TOD ROMO,JIM             
   3               : SACCHETTINI,NICHOLAS SAUTER,JACOB SMITH,             
   3               : LAURENT STORONI,TOM TERWILLIGER,PETER                
   3               : ZWART                                                
   3                                                                      
   3    REFINEMENT TARGET : ML                                            
   3                                                                      
   3  DATA USED IN REFINEMENT.                                            
   3   RESOLUTION RANGE HIGH (ANGSTROMS) : 1.44                           
   3   RESOLUTION RANGE LOW  (ANGSTROMS) : 29.52                          
   3   MIN(FOBS/SIGMA_FOBS)              : 1.990                          
   3   COMPLETENESS FOR RANGE        (%) : 96.7                           
   3   NUMBER OF REFLECTIONS             : 136573                         
   3                                                                      
   3  FIT TO DATA USED IN REFINEMENT.                                     
   3   R VALUE     (WORKING + TEST SET) : 0.162                           
   3   R VALUE            (WORKING SET) : 0.161                           
   3   FREE R VALUE                     : 0.193                           
   3   FREE R VALUE TEST SET SIZE   (%) : 3.790                           
   3   FREE R VALUE TEST SET COUNT      : 5177                            
   3                                                                      
   3  FIT TO DATA USED IN REFINEMENT (IN BINS).                           
   3   BIN  RESOLUTION RANGE  COMPL.    NWORK NFREE   RWORK  RFREE        
   3     1 29.5292 -  4.4694    0.92     4315   168  0.1728 0.1954        
   3     2  4.4694 -  3.5494    0.98     4489   189  0.1431 0.1585        
   3     3  3.5494 -  3.1013    0.97     4461   159  0.1649 0.1980        
   3     4  3.1013 -  2.8180    0.97     4397   195  0.1830 0.1788        
   3     5  2.8180 -  2.6161    0.98     4425   190  0.1755 0.2091        
   3     6  2.6161 -  2.4620    0.98     4468   161  0.1633 0.1988        
   3     7  2.4620 -  2.3387    0.98     4441   172  0.1538 0.1847        
   3     8  2.3387 -  2.2369    0.98     4424   169  0.1479 0.1865        
   3     9  2.2369 -  2.1509    0.97     4440   167  0.1477 0.1754        
   3    10  2.1509 -  2.0767    0.98     4350   196  0.1507 0.1801        
   3    11  2.0767 -  2.0117    0.97     4425   161  0.1461 0.1939        
   3    12  2.0117 -  1.9542    0.97     4400   181  0.1473 0.1868        
   3    13  1.9542 -  1.9028    0.97     4417   158  0.1430 0.1839        
   3    14  1.9028 -  1.8564    0.98     4467   119  0.1343 0.1733        
   3    15  1.8564 -  1.8142    0.97     4416   172  0.1299 0.1762        
   3    16  1.8142 -  1.7756    0.97     4370   166  0.1352 0.1848        
   3    17  1.7756 -  1.7401    0.97     4418   180  0.1418 0.1906        
   3    18  1.7401 -  1.7072    0.97     4413   112  0.1441 0.2227        
   3    19  1.7072 -  1.6768    0.97     4320   181  0.1435 0.2054        
   3    20  1.6768 -  1.6483    0.97     4409   183  0.1426 0.1936        
   3    21  1.6483 -  1.6217    0.96     4362   182  0.1525 0.2050        
   3    22  1.6217 -  1.5968    0.96     4277   178  0.1690 0.2227        
   3    23  1.5968 -  1.5733    0.96     4346   182  0.1733 0.2161        
   3    24  1.5733 -  1.5512    0.96     4363   181  0.1799 0.2223        
   3    25  1.5512 -  1.5302    0.96     4287   179  0.1860 0.2322        
   3    26  1.5302 -  1.5103    0.96     4334   181  0.2036 0.2302        
   3    27  1.5103 -  1.4914    0.96     4289   178  0.2288 0.2776        
   3    28  1.4914 -  1.4735    0.96     4308   180  0.2469 0.3035        
   3    29  1.4735 -  1.4563    0.96     4281   178  0.2555 0.3092        
   3    30  1.4563 -  1.4400    0.95     4284   179  0.2677 0.2938        
   3                                                                      
   3  BULK SOLVENT MODELLING.                                             
   3   METHOD USED        : FLAT BULK SOLVENT MODEL                       
   3   SOLVENT RADIUS     : 1.10                                          
   3   SHRINKAGE RADIUS   : 0.83                                          
   3   K_SOL              : 0.38                                          
   3   B_SOL              : 43.61                                         
   3                                                                      
   3  ERROR ESTIMATES.                                                    
   3   COORDINATE ERROR (MAXIMUM-LIKELIHOOD BASED)     : 0.410            
   3   PHASE ERROR (DEGREES, MAXIMUM-LIKELIHOOD BASED) : 19.460           
   3                                                                      
   3  B VALUES.                                                           
   3   FROM WILSON PLOT           (A**2) : 23.66                          
   3   MEAN B VALUE      (OVERALL, A**2) : 21.13                          
   3   OVERALL ANISOTROPIC B VALUE.                                       
   3    B11 (A**2) : 2.21330                                              
   3    B22 (A**2) : -0.56210                                             
   3    B33 (A**2) : -1.65120                                             
   3    B12 (A**2) : 0.00000                                              
   3    B13 (A**2) : 3.51420                                              
   3    B23 (A**2) : -0.00000                                             
   3                                                                      
   3  TWINNING INFORMATION.                                               
   3   FRACTION: NULL                                                     
   3   OPERATOR: NULL                                                     
   3                                                                      
   3  DEVIATIONS FROM IDEAL VALUES.                                       
   3                 RMSD          COUNT                                  
   3   BOND      :  0.010           5856                                  
   3   ANGLE     :  1.313           8048                                  
   3   CHIRALITY :  0.084            874                                  
   3   PLANARITY :  0.007           1036                                  
   3   DIHEDRAL  : 15.687           2127                                  
   3                                                                      
   3  TLS DETAILS                                                         
   3   NUMBER OF TLS GROUPS  : NULL                                       
   3                                                                      
   3  NCS DETAILS                                                         
   3   NUMBER OF NCS GROUPS : NULL                                        
   3                                                                      
   3  OTHER REFINEMENT REMARKS: NULL                                      
   4                                                                      
   4 4E3M COMPLIES WITH FORMAT V. 3.30, 13-JUL-11                         
 100                                                                      
 100 THIS ENTRY HAS BEEN PROCESSED BY RCSB ON 16-MAR-12.                  
 100 THE RCSB ID CODE IS RCSB071126.                                      
 200                                                                      
 200 EXPERIMENTAL DETAILS                                                 
 200  EXPERIMENT TYPE                : X-RAY DIFFRACTION                  
 200  DATE OF DATA COLLECTION        : 08-SEP-11                          
 200  TEMPERATURE           (KELVIN) : 80                                 
 200  PH                             : 8.8                                
 200  NUMBER OF CRYSTALS USED        : 1                                  
 200                                                                      
 200  SYNCHROTRON              (Y/N) : Y                                  
 200  RADIATION SOURCE               : ALS                                
 200  BEAMLINE                       : 8.3.1                              
 200  X-RAY GENERATOR MODEL          : NULL                               
 200  MONOCHROMATIC OR LAUE    (M/L) : M                                  
 200  WAVELENGTH OR RANGE        (A) : 1.11587                            
 200  MONOCHROMATOR                  : NULL                               
 200  OPTICS                         : NULL                               
 200                                                                      
 200  DETECTOR TYPE                  : CCD                                
 200  DETECTOR MANUFACTURER          : ADSC QUANTUM 315R                  
 200  INTENSITY-INTEGRATION SOFTWARE : NULL                               
 200  DATA SCALING SOFTWARE          : XSCALE                             
 200                                                                      
 200  NUMBER OF UNIQUE REFLECTIONS   : 136592                             
 200  RESOLUTION RANGE HIGH      (A) : 1.440                              
 200  RESOLUTION RANGE LOW       (A) : 29.523                             
 200  REJECTION CRITERIA  (SIGMA(I)) : -3.000                             
 200                                                                      
 200 OVERALL.                                                             
 200  COMPLETENESS FOR RANGE     (%) : 96.6                               
 200  DATA REDUNDANCY                : NULL                               
 200  R MERGE                    (I) : 0.03100                            
 200  R SYM                      (I) : NULL                               
 200  <I/SIGMA(I)> FOR THE DATA SET  : 18.8200                            
 200                                                                      
 200 IN THE HIGHEST RESOLUTION SHELL.                                     
 200  HIGHEST RESOLUTION SHELL, RANGE HIGH (A) : 1.44                     
 200  HIGHEST RESOLUTION SHELL, RANGE LOW  (A) : 1.48                     
 200  COMPLETENESS FOR SHELL     (%) : 95.3                               
 200  DATA REDUNDANCY IN SHELL       : NULL                               
 200  R MERGE FOR SHELL          (I) : 0.53700                            
 200  R SYM FOR SHELL            (I) : NULL                               
 200  <I/SIGMA(I)> FOR SHELL         : 1.990                              
 200                                                                      
 200 DIFFRACTION PROTOCOL: SINGLE WAVELENGTH                              
 200 METHOD USED TO DETERMINE THE STRUCTURE: MOLECULAR REPLACEMENT        
 200 SOFTWARE USED: NULL                                                  
 200 STARTING MODEL: PDB ENTRY 1KE4                                       
 200                                                                      
 200 REMARK: NULL                                                         
 280                                                                      
 280 CRYSTAL                                                              
 280 SOLVENT CONTENT, VS   (%): 50.97                                     
 280 MATTHEWS COEFFICIENT, VM (ANGSTROMS**3/DA): 2.51                     
 280                                                                      
 280 CRYSTALLIZATION CONDITIONS: 1.7 M POTASSIUM PHOSPHATE, PH 8.8,       
 280  VAPOR DIFFUSION, HANGING DROP, TEMPERATURE 293K                     
 290                                                                      
 290 CRYSTALLOGRAPHIC SYMMETRY                                            
 290 SYMMETRY OPERATORS FOR SPACE GROUP: C 1 2 1                          
 290                                                                      
 290      SYMOP   SYMMETRY                                                
 290     NNNMMM   OPERATOR                                                
 290       1555   X,Y,Z                                                   
 290       2555   -X,Y,-Z                                                 
 290       3555   X+1/2,Y+1/2,Z                                           
 290       4555   -X+1/2,Y+1/2,-Z                                         
 290                                                                      
 290     WHERE NNN -> OPERATOR NUMBER                                     
 290           MMM -> TRANSLATION VECTOR                                  
 290                                                                      
 290 CRYSTALLOGRAPHIC SYMMETRY TRANSFORMATIONS                            
 290 THE FOLLOWING TRANSFORMATIONS OPERATE ON THE ATOM/HETATM             
 290 RECORDS IN THIS ENTRY TO PRODUCE CRYSTALLOGRAPHICALLY                
 290 RELATED MOLECULES.                                                   
 290   SMTRY1   1  1.000000  0.000000  0.000000        0.00000            
 290   SMTRY2   1  0.000000  1.000000  0.000000        0.00000            
 290   SMTRY3   1  0.000000  0.000000  1.000000        0.00000            
 290   SMTRY1   2 -1.000000  0.000000  0.000000        0.00000            
 290   SMTRY2   2  0.000000  1.000000  0.000000        0.00000            
 290   SMTRY3   2  0.000000  0.000000 -1.000000        0.00000            
 290   SMTRY1   3  1.000000  0.000000  0.000000       59.06000            
 290   SMTRY2   3  0.000000  1.000000  0.000000       38.46000            
 290   SMTRY3   3  0.000000  0.000000  1.000000        0.00000            
 290   SMTRY1   4 -1.000000  0.000000  0.000000       59.06000            
 290   SMTRY2   4  0.000000  1.000000  0.000000       38.46000            
 290   SMTRY3   4  0.000000  0.000000 -1.000000        0.00000            
 290                                                                      
 290 REMARK: NULL                                                         
 300                                                                      
 300 BIOMOLECULE: 1, 2                                                    
 300 SEE REMARK 350 FOR THE AUTHOR PROVIDED AND/OR PROGRAM                
 300 GENERATED ASSEMBLY INFORMATION FOR THE STRUCTURE IN                  
 300 THIS ENTRY. THE REMARK MAY ALSO PROVIDE INFORMATION ON               
 300 BURIED SURFACE AREA.                                                 
 350                                                                      
 350 COORDINATES FOR A COMPLETE MULTIMER REPRESENTING THE KNOWN           
 350 BIOLOGICALLY SIGNIFICANT OLIGOMERIZATION STATE OF THE                
 350 MOLECULE CAN BE GENERATED BY APPLYING BIOMT TRANSFORMATIONS          
 350 GIVEN BELOW.  BOTH NON-CRYSTALLOGRAPHIC AND                          
 350 CRYSTALLOGRAPHIC OPERATIONS ARE GIVEN.                               
 350                                                                      
 350 BIOMOLECULE: 1                                                       
 350 AUTHOR DETERMINED BIOLOGICAL UNIT: MONOMERIC                         
 350 APPLY THE FOLLOWING TO CHAINS: A                                     
 350   BIOMT1   1  1.000000  0.000000  0.000000        0.00000            
 350   BIOMT2   1  0.000000  1.000000  0.000000        0.00000            
 350   BIOMT3   1  0.000000  0.000000  1.000000        0.00000            
 350                                                                      
 350 BIOMOLECULE: 2                                                       
 350 AUTHOR DETERMINED BIOLOGICAL UNIT: MONOMERIC                         
 350 APPLY THE FOLLOWING TO CHAINS: B                                     
 350   BIOMT1   1  1.000000  0.000000  0.000000        0.00000            
 350   BIOMT2   1  0.000000  1.000000  0.000000        0.00000            
 350   BIOMT3   1  0.000000  0.000000  1.000000        0.00000            
 470                                                                      
 470 MISSING ATOM                                                         
 470 THE FOLLOWING RESIDUES HAVE MISSING ATOMS (M=MODEL NUMBER;           
 470 RES=RESIDUE NAME; C=CHAIN IDENTIFIER; SSEQ=SEQUENCE NUMBER;          
 470 I=INSERTION CODE):                                                   
 470   M RES CSSEQI  ATOMS                                                
 470     GLU A  21    CD   OE1  OE2                                       
 470     GLN A  22    CG   CD   OE1  NE2                                  
 470     LYS A  24    CD   CE   NZ                                        
 470     LYS A  37    CG   CD   CE   NZ                                   
 470     LYS A  99    CG   CD   CE   NZ                                   
 470     ASP A 123    CG   OD1  OD2                                       
 470     GLU A 124    CG   CD   OE1  OE2                                  
 470     ARG A 204    NE   CZ   NH1  NH2                                  
 470     GLU A 205    CD   OE1  OE2                                       
 470     LYS A 207    CG   CD   CE   NZ                                   
 470     ASN A 244    CG   OD1  ND2                                       
 470     LYS A 246    CG   CD   CE   NZ                                   
 470     ASP A 281    CG   OD1  OD2                                       
 470     SER A 282    OG                                                  
 470     LYS A 290    CG   CD   CE   NZ                                   
 470     ILE A 291    CG1  CG2  CD1                                       
 470     LYS A 299    CG   CD   CE   NZ                                   
 470     LYS B  37    CG   CD   CE   NZ                                   
 470     LYS B  50    CG   CD   CE   NZ                                   
 470     GLN B  52    CD   OE1  NE2                                       
 470     GLU B  95    CD   OE1  OE2                                       
 470     LYS B 126    CG   CD   CE   NZ                                   
 470     GLU B 205    CG   CD   OE1  OE2                                  
 470     LYS B 207    CG   CD   CE   NZ                                   
 470     ASN B 244    CG   OD1  ND2                                       
 470     LYS B 246    CG   CD   CE   NZ                                   
 470     GLN B 253    CD   OE1  NE2                                       
 470     LYS B 299    CG   CD   CE   NZ                                   
 470     GLU B 331    CG   CD   OE1  OE2                                  
 470     GLU B 333    CD   OE1  OE2                                       
 500                                                                      
 500 GEOMETRY AND STEREOCHEMISTRY                                         
 500 SUBTOPIC: TORSION ANGLES                                             
 500                                                                      
 500 TORSION ANGLES OUTSIDE THE EXPECTED RAMACHANDRAN REGIONS:            
 500 (M=MODEL NUMBER; RES=RESIDUE NAME; C=CHAIN IDENTIFIER;               
 500 SSEQ=SEQUENCE NUMBER; I=INSERTION CODE).                             
 500                                                                      
 500 STANDARD TABLE:                                                      
 500 FORMAT:(10X,I3,1X,A3,1X,A1,I4,A1,4X,F7.2,3X,F7.2)                    
 500                                                                      
 500 EXPECTED VALUES: GJ KLEYWEGT AND TA JONES (1996). PHI/PSI-           
 500 CHOLOGY: RAMACHANDRAN REVISITED. STRUCTURE 4, 1395 - 1400            
 500                                                                      
 500  M RES CSSEQI        PSI       PHI                                   
 500    VAL A 178      -59.97   -124.40                                   
 500    TYR A 221       19.54   -158.44                                   
 500    ASN A 341       45.14   -100.78                                   
 500    LYS B 126      -63.03   -129.36                                   
 500    SER B 154      -67.83    -94.95                                   
 500    VAL B 178      -56.80   -126.18                                   
 500    TYR B 221       22.08   -160.76                                   
 500    ASN B 341       43.69    -97.94                                   
 500                                                                      
 500 REMARK: NULL                                                         
 800                                                                      
 800 SITE                                                                 
 800 SITE_IDENTIFIER: AC1                                                 
 800 EVIDENCE_CODE: SOFTWARE                                              
 800 SITE_DESCRIPTION: BINDING SITE FOR RESIDUE 0ND A 401                 
 800                                                                      
 800 SITE_IDENTIFIER: AC2                                                 
 800 EVIDENCE_CODE: SOFTWARE                                              
 800 SITE_DESCRIPTION: BINDING SITE FOR RESIDUE 0ND A 402                 
 800                                                                      
 800 SITE_IDENTIFIER: AC3                                                 
 800 EVIDENCE_CODE: SOFTWARE                                              
 800 SITE_DESCRIPTION: BINDING SITE FOR RESIDUE 0ND B 401                 
 800                                                                      
 800 SITE_IDENTIFIER: AC4                                                 
 800 EVIDENCE_CODE: SOFTWARE                                              
 800 SITE_DESCRIPTION: BINDING SITE FOR RESIDUE PO4 B 402                 
 800                                                                      
 800 SITE_IDENTIFIER: AC5                                                 
 800 EVIDENCE_CODE: SOFTWARE                                              
 800 SITE_DESCRIPTION: BINDING SITE FOR RESIDUE PO4 B 403                 
 900                                                                      
 900 RELATED ENTRIES                                                      
 900 RELATED ID: 4E3I   RELATED DB: PDB                                   
 900 RELATED ID: 4E3J   RELATED DB: PDB                                   
 900 RELATED ID: 4E3K   RELATED DB: PDB                                   
 900 RELATED ID: 4E3L   RELATED DB: PDB                                   
 900 RELATED ID: 4E3N   RELATED DB: PDB                                   
 900 RELATED ID: 4E3O   RELATED DB: PDB                                   

>  <DBREF>
 4E3M A    4   361  UNP    P00811   AMPC_ECOLI      20    377             
 4E3M B    4   361  UNP    P00811   AMPC_ECOLI      20    377             

>  <SEQRES>
   1 A  358  ALA PRO GLN GLN ILE ASN ASP ILE VAL HIS ARG THR ILE          
   2 A  358  THR PRO LEU ILE GLU GLN GLN LYS ILE PRO GLY MET ALA          
   3 A  358  VAL ALA VAL ILE TYR GLN GLY LYS PRO TYR TYR PHE THR          
   4 A  358  TRP GLY TYR ALA ASP ILE ALA LYS LYS GLN PRO VAL THR          
   5 A  358  GLN GLN THR LEU PHE GLU LEU GLY SER VAL SER LYS THR          
   6 A  358  PHE THR GLY VAL LEU GLY GLY ASP ALA ILE ALA ARG GLY          
   7 A  358  GLU ILE LYS LEU SER ASP PRO THR THR LYS TYR TRP PRO          
   8 A  358  GLU LEU THR ALA LYS GLN TRP ASN GLY ILE THR LEU LEU          
   9 A  358  HIS LEU ALA THR TYR THR ALA GLY GLY LEU PRO LEU GLN          
  10 A  358  VAL PRO ASP GLU VAL LYS SER SER SER ASP LEU LEU ARG          
  11 A  358  PHE TYR GLN ASN TRP GLN PRO ALA TRP ALA PRO GLY THR          
  12 A  358  GLN ARG LEU TYR ALA ASN SER SER ILE GLY LEU PHE GLY          
  13 A  358  ALA LEU ALA VAL LYS PRO SER GLY LEU SER PHE GLU GLN          
  14 A  358  ALA MET GLN THR ARG VAL PHE GLN PRO LEU LYS LEU ASN          
  15 A  358  HIS THR TRP ILE ASN VAL PRO PRO ALA GLU GLU LYS ASN          
  16 A  358  TYR ALA TRP GLY TYR ARG GLU GLY LYS ALA VAL HIS VAL          
  17 A  358  SER PRO GLY ALA LEU ASP ALA GLU ALA TYR GLY VAL LYS          
  18 A  358  SER THR ILE GLU ASP MET ALA ARG TRP VAL GLN SER ASN          
  19 A  358  LEU LYS PRO LEU ASP ILE ASN GLU LYS THR LEU GLN GLN          
  20 A  358  GLY ILE GLN LEU ALA GLN SER ARG TYR TRP GLN THR GLY          
  21 A  358  ASP MET TYR GLN GLY LEU GLY TRP GLU MET LEU ASP TRP          
  22 A  358  PRO VAL ASN PRO ASP SER ILE ILE ASN GLY SER ASP ASN          
  23 A  358  LYS ILE ALA LEU ALA ALA ARG PRO VAL LYS ALA ILE THR          
  24 A  358  PRO PRO THR PRO ALA VAL ARG ALA SER TRP VAL HIS LYS          
  25 A  358  THR GLY ALA THR GLY GLY PHE GLY SER TYR VAL ALA PHE          
  26 A  358  ILE PRO GLU LYS GLU LEU GLY ILE VAL MET LEU ALA ASN          
  27 A  358  LYS ASN TYR PRO ASN PRO ALA ARG VAL ASP ALA ALA TRP          
  28 A  358  GLN ILE LEU ASN ALA LEU GLN                                  
   1 B  358  ALA PRO GLN GLN ILE ASN ASP ILE VAL HIS ARG THR ILE          
   2 B  358  THR PRO LEU ILE GLU GLN GLN LYS ILE PRO GLY MET ALA          
   3 B  358  VAL ALA VAL ILE TYR GLN GLY LYS PRO TYR TYR PHE THR          
   4 B  358  TRP GLY TYR ALA ASP ILE ALA LYS LYS GLN PRO VAL THR          
   5 B  358  GLN GLN THR LEU PHE GLU LEU GLY SER VAL SER LYS THR          
   6 B  358  PHE THR GLY VAL LEU GLY GLY ASP ALA ILE ALA ARG GLY          
   7 B  358  GLU ILE LYS LEU SER ASP PRO THR THR LYS TYR TRP PRO          
   8 B  358  GLU LEU THR ALA LYS GLN TRP ASN GLY ILE THR LEU LEU          
   9 B  358  HIS LEU ALA THR TYR THR ALA GLY GLY LEU PRO LEU GLN          
  10 B  358  VAL PRO ASP GLU VAL LYS SER SER SER ASP LEU LEU ARG          
  11 B  358  PHE TYR GLN ASN TRP GLN PRO ALA TRP ALA PRO GLY THR          
  12 B  358  GLN ARG LEU TYR ALA ASN SER SER ILE GLY LEU PHE GLY          
  13 B  358  ALA LEU ALA VAL LYS PRO SER GLY LEU SER PHE GLU GLN          
  14 B  358  ALA MET GLN THR ARG VAL PHE GLN PRO LEU LYS LEU ASN          
  15 B  358  HIS THR TRP ILE ASN VAL PRO PRO ALA GLU GLU LYS ASN          
  16 B  358  TYR ALA TRP GLY TYR ARG GLU GLY LYS ALA VAL HIS VAL          
  17 B  358  SER PRO GLY ALA LEU ASP ALA GLU ALA TYR GLY VAL LYS          
  18 B  358  SER THR ILE GLU ASP MET ALA ARG TRP VAL GLN SER ASN          
  19 B  358  LEU LYS PRO LEU ASP ILE ASN GLU LYS THR LEU GLN GLN          
  20 B  358  GLY ILE GLN LEU ALA GLN SER ARG TYR TRP GLN THR GLY          
  21 B  358  ASP MET TYR GLN GLY LEU GLY TRP GLU MET LEU ASP TRP          
  22 B  358  PRO VAL ASN PRO ASP SER ILE ILE ASN GLY SER ASP ASN          
  23 B  358  LYS ILE ALA LEU ALA ALA ARG PRO VAL LYS ALA ILE THR          
  24 B  358  PRO PRO THR PRO ALA VAL ARG ALA SER TRP VAL HIS LYS          
  25 B  358  THR GLY ALA THR GLY GLY PHE GLY SER TYR VAL ALA PHE          
  26 B  358  ILE PRO GLU LYS GLU LEU GLY ILE VAL MET LEU ALA ASN          
  27 B  358  LYS ASN TYR PRO ASN PRO ALA ARG VAL ASP ALA ALA TRP          
  28 B  358  GLN ILE LEU ASN ALA LEU GLN                                  

>  <HET>
 0ND  A 401      20                                                       
 0ND  A 402      20                                                       
 0ND  B 401      20                                                       
 PO4  B 402       5                                                       
 PO4  B 403       5                                                       

>  <HETNAM>
     0ND [({[2-CHLORO-4-(1H-TETRAZOL-5-YL)                                
   2 0ND  PHENYL]SULFONYL}AMINO)METHYL]BORONIC ACID                       
     PO4 PHOSPHATE ION                                                    

>  <FORMUL>
   3  0ND    3(C8 H9 B CL N5 O4 S)                                        
   6  PO4    2(O4 P 3-)                                                   
   8  HOH   *577(H2 O)                                                    

>  <HELIX>
   1   1 PRO A    5  LYS A   24  1                                  20    
   2   2 VAL A   65  ARG A   80  1                                  16    
   3   3 PRO A   88  TYR A   92  5                                   5    
   4   4 ALA A   98  ASN A  102  5                                   5    
   5   5 THR A  105  THR A  111  1                                   7    
   6   6 SER A  127  TRP A  138  1                                  12    
   7   7 ALA A  151  VAL A  163  1                                  13    
   8   8 SER A  169  VAL A  178  1                                  10    
   9   9 PRO A  192  TYR A  199  5                                   8    
  10  10 LEU A  216  GLY A  222  1                                   7    
  11  11 THR A  226  LYS A  239  1                                  14    
  12  12 PRO A  240  ILE A  243  5                                   4    
  13  13 GLU A  245  GLN A  256  1                                  12    
  14  14 ASN A  279  ASP A  288  1                                  10    
  15  15 ASP A  288  LEU A  293  1                                   6    
  16  16 PRO A  330  GLU A  333  5                                   4    
  17  17 PRO A  345  GLN A  361  1                                  17    
  18  18 PRO B    5  LYS B   24  1                                  20    
  19  19 VAL B   65  ARG B   80  1                                  16    
  20  20 PRO B   88  TRP B   93  1                                   6    
  21  21 ALA B   98  ASN B  102  5                                   5    
  22  22 THR B  105  THR B  111  1                                   7    
  23  23 SER B  127  TRP B  138  1                                  12    
  24  24 ALA B  151  VAL B  163  1                                  13    
  25  25 SER B  169  VAL B  178  1                                  10    
  26  26 PRO B  192  TYR B  199  5                                   8    
  27  27 LEU B  216  GLY B  222  1                                   7    
  28  28 THR B  226  LYS B  239  1                                  14    
  29  29 PRO B  240  ILE B  243  5                                   4    
  30  30 GLU B  245  GLN B  256  1                                  12    
  31  31 ASN B  279  SER B  287  1                                   9    
  32  32 ASP B  288  LEU B  293  1                                   6    
  33  33 PRO B  330  GLU B  333  5                                   4    
  34  34 PRO B  345  GLN B  361  1                                  17    

>  <SHEET>
   1   A10 GLN A  52  PRO A  53  0                                        
   2   A10 LYS A  37  ASP A  47 -1  N  ALA A  46   O  GLN A  52           
   3   A10 GLY A  27  TYR A  34 -1  N  VAL A  30   O  PHE A  41           
   4   A10 LEU A 334  ALA A 340 -1  O  LEU A 339   N  ALA A  29           
   5   A10 PHE A 322  ILE A 329 -1  N  ILE A 329   O  LEU A 334           
   6   A10 SER A 311  THR A 319 -1  N  VAL A 313   O  PHE A 328           
   7   A10 GLU A 272  ASP A 275 -1  N  GLU A 272   O  HIS A 314           
   8   A10 MET A 265  GLN A 267 -1  N  TYR A 266   O  MET A 273           
   9   A10 ARG A 258  THR A 262 -1  N  TYR A 259   O  GLN A 267           
  10   A10 LYS A 299  THR A 305 -1  O  THR A 305   N  ARG A 258           
   1   B 3 PHE A  60  GLU A  61  0                                        
   2   B 3 LYS A 224  SER A 225 -1  O  SER A 225   N  PHE A  60           
   3   B 3 THR A 187  TRP A 188 -1  N  TRP A 188   O  LYS A 224           
   1   C 2 GLN A 147  ARG A 148  0                                        
   2   C 2 ARG A 296  PRO A 297 -1  O  ARG A 296   N  ARG A 148           
   1   D 2 GLY A 202  ARG A 204  0                                        
   2   D 2 LYS A 207  VAL A 209 -1  O  VAL A 209   N  GLY A 202           
   1   E10 GLN B  52  PRO B  53  0                                        
   2   E10 LYS B  37  ASP B  47 -1  N  ALA B  46   O  GLN B  52           
   3   E10 GLY B  27  TYR B  34 -1  N  TYR B  34   O  LYS B  37           
   4   E10 LEU B 334  ALA B 340 -1  O  LEU B 339   N  ALA B  29           
   5   E10 PHE B 322  ILE B 329 -1  N  ALA B 327   O  ILE B 336           
   6   E10 SER B 311  THR B 319 -1  N  GLY B 317   O  SER B 324           
   7   E10 GLU B 272  ASP B 275 -1  N  LEU B 274   O  TRP B 312           
   8   E10 MET B 265  GLN B 267 -1  N  TYR B 266   O  MET B 273           
   9   E10 ARG B 258  THR B 262 -1  N  THR B 262   O  MET B 265           
  10   E10 LYS B 299  THR B 305 -1  O  THR B 305   N  ARG B 258           
   1   F 2 PHE B  60  GLU B  61  0                                        
   2   F 2 LYS B 224  SER B 225 -1  O  SER B 225   N  PHE B  60           
   1   G 2 GLN B 147  ARG B 148  0                                        
   2   G 2 ARG B 296  PRO B 297 -1  O  ARG B 296   N  ARG B 148           
   1   H 2 GLY B 202  ARG B 204  0                                        
   2   H 2 LYS B 207  VAL B 209 -1  O  VAL B 209   N  GLY B 202           

>  <LINK>
       OG  SER B  64                 B03 0ND B 401     1555   1555  1.45  
       OG  SER A  64                 B03 0ND A 401     1555   1555  1.46  

>  <CISPEP>
   1 TRP A  276    PRO A  277          0         5.73                     
   2 THR A  302    PRO A  303          0        -5.60                     
   3 TRP B  276    PRO B  277          0         3.21                     
   4 THR B  302    PRO B  303          0        -1.83                     

>  <SITE>
   1 AC1 12 SER A  64  GLN A 120  TYR A 150  ASN A 152                    
   2 AC1 12 VAL A 211  SER A 212  ALA A 318  THR A 319                    
   3 AC1 12 GLY A 320  HOH A 785  HOH A 786  HOH A 787                    
   1 AC2 14 LEU A  85  GLN A 250  GLN A 253  SER A 257                    
   2 AC2 14 TYR A 259  PRO A 304  HOH A 554  HOH A 576                    
   3 AC2 14 HOH A 691  GLN B 250  SER B 257  PRO B 303                    
   4 AC2 14 PRO B 304  PRO B 306                                          
   1 AC3 13 SER B  64  GLN B 120  TYR B 150  ASN B 152                    
   2 AC3 13 VAL B 211  SER B 212  ALA B 318  THR B 319                    
   3 AC3 13 GLY B 320  HOH B 752  HOH B 753  HOH B 754                    
   4 AC3 13 HOH B 760                                                     
   1 AC4  6 PHE A  41  THR A  42  HOH A 602  HOH A 735                    
   2 AC4  6 GLY B 116  ALA B 141                                          
   1 AC5  4 ARG A 133  HIS A 186  HOH A 777  LYS B 290                    

>  <ORIGX1>
      1.000000  0.000000  0.000000        0.00000                         

>  <ORIGX2>
      0.000000  1.000000  0.000000        0.00000                         

>  <ORIGX3>
      0.000000  0.000000  1.000000        0.00000                         

>  <SCALE1>
      0.008466  0.000000  0.004196        0.00000                         

>  <SCALE2>
      0.000000  0.013001  0.000000        0.00000                         

>  <SCALE3>
      0.000000  0.000000  0.011435        0.00000                         

>  <ANISOU>
  474  N   SER A  64     1491   1017   1521   -520    158    -92       N  
  475  CA  SER A  64     1522   1052   1372   -365     46   -110       C  
  476  C   SER A  64     1469    843   1283   -123    192     66       C  
  477  O   SER A  64     1549   1213   1553   -182    429   -378       O  
  478  CB  SER A  64     1606   1213   1416   -156     44   -274       C  
  479  OG  SER A  64     1568   1329   1442     -5    129   -115       O  
 5609  B03 0ND A 401     1618   1083   1726      6    171   -318       B  
 5610  O04 0ND A 401     1735   1434   1841    -72    299     23       O  
 5611  O05 0ND A 401     1805   1283   2035   -344    266   -407       O  
 5612  C06 0ND A 401     1513   1424   2072    112    214   -411       C  
 5613  N07 0ND A 401     1499   1443   2303    237    133    175       N  
 5614  S08 0ND A 401     1667   1628   2760    -57    483    -21       S  
 5615  O09 0ND A 401     1678   2166   2695   -482    202    128       O  
 5616  O10 0ND A 401     1878   1459   3068    -88    314   -254       O  
 5617  C11 0ND A 401     1647   1551   2329   -126    496   -232       C  
 5618  C12 0ND A 401     1581   2091   2185     13    168    -86       C  
 5619  C13 0ND A 401     1513   1958   2326   -523     -1     41       C  
 5620  C14 0ND A 401     1708   2020   2259   -396    155    339       C  
 5621  C15 0ND A 401     1817   1906   2052   -362    -88    261       C  
 5622  N16 0ND A 401     2023   1696   1859   -353   -138     96       N  
 5623  N17 0ND A 401     2162   1853   1949   -372    -47   -204       N  
 5624  N18 0ND A 401     2148   2082   2033   -403   -103    -10       N  
 5625  N19 0ND A 401     1955   1977   2126   -180   -227    194       N  
 5626  C20 0ND A 401     1778   1759   2419     69    529    182       C  
 5627  C21 0ND A 401     1823   1931   2385    216    496   -109       C  
 5628 CL2  0ND A 401     2127   2314   2483    -82    465   -200      CL  

>  <MASTER>
      314    0    5   34   33    0   14    6 6142    2   72   56          

$$$$
