start_structures/Ligand_Substrate/Ligand_Complex_Stripped/0NE_4E3N.pdb
 OpenBabel08222315203D

 29 30  0  0  1  0  0  0  0  0999 V2000
   26.2410    1.4200   15.9900 N   0  0  0  0  0  0  0  0  0  0  0  0
   27.6100    1.8650   16.2860 C   0  0  2  0  0  0  0  0  0  0  0  0
   28.4540    0.9660   17.1690 C   0  0  0  0  0  0  0  0  0  0  0  0
   29.6560    1.2250   17.3500 O   0  0  0  0  0  0  0  0  0  0  0  0
   27.6260    3.2900   16.8620 C   0  0  0  0  0  0  0  0  0  0  0  0
   27.1660    4.1710   15.8590 O   0  0  0  0  0  0  0  0  0  0  0  0
   25.9170    4.8680   16.1450 B   0  0  0  0  0  0  0  0  0  0  0  0
   24.8560    3.8840   16.3720 O   0  0  0  0  0  0  0  0  0  0  0  0
   26.0710    5.6610   17.3690 O   0  0  0  0  0  0  0  0  0  0  0  0
   25.5570    5.8110   14.9260 C   0  0  0  0  0  0  0  0  0  0  0  0
   24.3580    6.6190   15.1560 N   0  0  0  0  0  0  0  0  0  0  0  0
   23.6920    7.5400   13.9990 S   0  0  0  0  0  0  0  0  0  0  0  0
   22.8930    8.5910   14.5840 O   0  0  0  0  0  0  0  0  0  0  0  0
   24.7060    8.1390   13.1560 O   0  0  0  0  0  0  0  0  0  0  0  0
   22.6250    6.5180   12.9440 C   0  0  0  0  0  0  0  0  0  0  0  0
   23.1380    6.1730   11.6830 C   0  0  0  0  0  0  0  0  0  0  0  0
   22.3950    5.4480   10.8180 C   0  0  0  0  0  0  0  0  0  0  0  0
   21.1180    5.0290   11.1890 C   0  0  0  0  0  0  0  0  0  0  0  0
   20.3280    4.2870   10.3220 C   0  0  0  0  0  0  0  0  0  0  0  0
   19.2210    3.6270   10.6780 N   0  0  0  0  0  0  0  0  0  0  0  0
   18.6800    3.0410    9.5760 N   0  0  0  0  0  0  0  0  0  0  0  0
   19.4810    3.3580    8.4990 N   0  0  0  0  0  0  0  0  0  0  0  0
   20.5000    4.1280    8.9630 N   0  0  0  0  0  0  0  0  0  0  0  0
   20.6270    5.3680   12.4530 C   0  0  0  0  0  0  0  0  0  0  0  0
   21.3490    6.1070   13.3330 C   0  0  0  0  0  0  0  0  0  0  0  0
   20.7410    6.4050   14.6890 C   0  0  0  0  0  0  0  0  0  0  0  0
   19.7500    5.4760   14.9300 F   0  0  0  0  0  0  0  0  0  0  0  0
   20.1680    7.6000   14.6980 F   0  0  0  0  0  0  0  0  0  0  0  0
   21.5760    6.3050   15.6730 F   0  0  0  0  0  0  0  0  0  0  0  0
  2  1  1  1  0  0  0
  2  5  1  0  0  0  0
  2  3  1  0  0  0  0
  3  4  2  0  0  0  0
  6  7  1  0  0  0  0
  6  5  1  0  0  0  0
  7  8  1  0  0  0  0
  7  9  1  0  0  0  0
  7 10  1  0  0  0  0
 10 11  1  0  0  0  0
 11 12  1  0  0  0  0
 12 13  2  0  0  0  0
 12 14  2  0  0  0  0
 12 15  1  0  0  0  0
 15 16  2  0  0  0  0
 15 25  1  0  0  0  0
 16 17  1  0  0  0  0
 17 18  2  0  0  0  0
 18 19  1  0  0  0  0
 18 24  1  0  0  0  0
 19 20  2  0  0  0  0
 19 23  1  0  0  0  0
 20 21  1  0  0  0  0
 21 22  1  0  0  0  0
 22 23  2  0  0  0  0
 24 25  2  0  0  0  0
 25 26  1  0  0  0  0
 26 27  1  0  0  0  0
 26 28  1  0  0  0  0
 26 29  1  0  0  0  0
M  END
>  <HEADER>
    HYDROLASE/HYDROLASE INHIBITOR           09-MAR-12   4E3N              

>  <TITLE>
    CRYSTAL STRUCTURE OF AMPC BETA-LACTAMASE IN COMPLEX WITH A 2-         
   2 TRIFLUOROMETHYL-4-TETRAZOLYL BENZENE SULFONAMIDE BORONIC ACID        
   3 INHIBITOR                                                            

>  <COMPND>
    MOL_ID: 1;                                                            
   2 MOLECULE: BETA-LACTAMASE;                                            
   3 CHAIN: A, B;                                                         
   4 SYNONYM: CEPHALOSPORINASE;                                           
   5 EC: 3.5.2.6;                                                         
   6 ENGINEERED: YES                                                      

>  <SOURCE>
    MOL_ID: 1;                                                            
   2 ORGANISM_SCIENTIFIC: ESCHERICHIA COLI;                               
   3 ORGANISM_TAXID: 83333;                                               
   4 STRAIN: K12;                                                         
   5 GENE: AMPA, AMPC, B4150, JW4111;                                     
   6 EXPRESSION_SYSTEM: ESCHERICHIA COLI;                                 
   7 EXPRESSION_SYSTEM_TAXID: 562;                                        
   8 EXPRESSION_SYSTEM_STRAIN: JM109;                                     
   9 EXPRESSION_SYSTEM_VECTOR_TYPE: PLASMID;                              
  10 EXPRESSION_SYSTEM_PLASMID: POGO295                                   

>  <KEYWDS>
    AMPC BETA-LACTAMASE, CLASS C, CEPHALOSPORINASE, HYDROLASE-HYDROLASE   
   2 INHIBITOR COMPLEX                                                    

>  <EXPDTA>
    X-RAY DIFFRACTION                                                     

>  <AUTHOR>
    O.EIDAM,B.K.SHOICHET                                                  

>  <REVDAT>
   2   07-NOV-12 4E3N    1       JRNL                                     
   1   26-SEP-12 4E3N    0                                                

>  <JRNL>
      AUTH   O.EIDAM,C.ROMAGNOLI,G.DALMASSO,S.BARELIER,E.CASELLI,         
      AUTH 2 R.BONNET,B.K.SHOICHET,F.PRATI                                
      TITL   FRAGMENT-GUIDED DESIGN OF SUBNANOMOLAR BETA-LACTAMASE        
      TITL 2 INHIBITORS ACTIVE IN VIVO.                                   
      REF    PROC.NATL.ACAD.SCI.USA        V. 109 17448 2012              
      REFN                   ISSN 0027-8424                               
      PMID   23043117                                                     
      DOI    10.1073/PNAS.1208337109                                      

>  <REMARK>
   2                                                                      
   2 RESOLUTION.    1.49 ANGSTROMS.                                       
   3                                                                      
   3 REFINEMENT.                                                          
   3   PROGRAM     : PHENIX (PHENIX.REFINE: 1.7.1_743)                    
   3   AUTHORS     : PAUL ADAMS,PAVEL AFONINE,VICENT CHEN,IAN             
   3               : DAVIS,KRESHNA GOPAL,RALF GROSSE-                     
   3               : KUNSTLEVE,LI-WEI HUNG,ROBERT IMMORMINO,              
   3               : TOM IOERGER,AIRLIE MCCOY,ERIK MCKEE,NIGEL            
   3               : MORIARTY,REETAL PAI,RANDY READ,JANE                  
   3               : RICHARDSON,DAVID RICHARDSON,TOD ROMO,JIM             
   3               : SACCHETTINI,NICHOLAS SAUTER,JACOB SMITH,             
   3               : LAURENT STORONI,TOM TERWILLIGER,PETER                
   3               : ZWART                                                
   3                                                                      
   3    REFINEMENT TARGET : ML                                            
   3                                                                      
   3  DATA USED IN REFINEMENT.                                            
   3   RESOLUTION RANGE HIGH (ANGSTROMS) : 1.49                           
   3   RESOLUTION RANGE LOW  (ANGSTROMS) : 29.57                          
   3   MIN(FOBS/SIGMA_FOBS)              : 2.000                          
   3   COMPLETENESS FOR RANGE        (%) : 99.7                           
   3   NUMBER OF REFLECTIONS             : 127104                         
   3                                                                      
   3  FIT TO DATA USED IN REFINEMENT.                                     
   3   R VALUE     (WORKING + TEST SET) : 0.156                           
   3   R VALUE            (WORKING SET) : 0.154                           
   3   FREE R VALUE                     : 0.188                           
   3   FREE R VALUE TEST SET SIZE   (%) : 3.740                           
   3   FREE R VALUE TEST SET COUNT      : 4760                            
   3                                                                      
   3  FIT TO DATA USED IN REFINEMENT (IN BINS).                           
   3   BIN  RESOLUTION RANGE  COMPL.    NWORK NFREE   RWORK  RFREE        
   3     1 29.5803 -  4.6240    0.95     4033   149  0.1764 0.1954        
   3     2  4.6240 -  3.6724    1.00     4101   186  0.1400 0.1595        
   3     3  3.6724 -  3.2088    0.99     4104   144  0.1580 0.1882        
   3     4  3.2088 -  2.9157    1.00     4090   182  0.1740 0.2010        
   3     5  2.9157 -  2.7069    1.00     4055   174  0.1708 0.1738        
   3     6  2.7069 -  2.5474    1.00     4117   147  0.1609 0.1752        
   3     7  2.5474 -  2.4199    1.00     4070   169  0.1500 0.1801        
   3     8  2.4199 -  2.3146    1.00     4113   159  0.1454 0.1933        
   3     9  2.3146 -  2.2255    1.00     4118   148  0.1393 0.1589        
   3    10  2.2255 -  2.1487    1.00     4082   154  0.1442 0.1839        
   3    11  2.1487 -  2.0815    1.00     4064   170  0.1452 0.1917        
   3    12  2.0815 -  2.0221    1.00     4057   166  0.1443 0.1929        
   3    13  2.0221 -  1.9688    1.00     4107   150  0.1390 0.2013        
   3    14  1.9688 -  1.9208    1.00     4082   153  0.1282 0.1737        
   3    15  1.9208 -  1.8772    1.00     4149   109  0.1267 0.1684        
   3    16  1.8772 -  1.8372    1.00     4099   140  0.1318 0.1759        
   3    17  1.8372 -  1.8005    1.00     4054   163  0.1272 0.1916        
   3    18  1.8005 -  1.7665    1.00     4075   165  0.1308 0.1895        
   3    19  1.7665 -  1.7350    1.00     4099   159  0.1322 0.1573        
   3    20  1.7350 -  1.7055    1.00     4107    82  0.1371 0.1989        
   3    21  1.7055 -  1.6780    1.00     4057   169  0.1454 0.2150        
   3    22  1.6780 -  1.6522    1.00     4090   171  0.1524 0.2155        
   3    23  1.6522 -  1.6279    1.00     4043   168  0.1534 0.2287        
   3    24  1.6279 -  1.6050    1.00     4054   169  0.1659 0.2273        
   3    25  1.6050 -  1.5833    1.00     4071   170  0.1717 0.2221        
   3    26  1.5833 -  1.5627    1.00     4010   167  0.1710 0.2241        
   3    27  1.5627 -  1.5432    1.00     4086   170  0.1825 0.2418        
   3    28  1.5432 -  1.5246    1.00     4090   170  0.2013 0.2401        
   3    29  1.5246 -  1.5069    1.00     4027   168  0.2104 0.2582        
   3    30  1.5069 -  1.4900    1.00     4040   169  0.2314 0.2713        
   3                                                                      
   3  BULK SOLVENT MODELLING.                                             
   3   METHOD USED        : FLAT BULK SOLVENT MODEL                       
   3   SOLVENT RADIUS     : 1.20                                          
   3   SHRINKAGE RADIUS   : 0.95                                          
   3   K_SOL              : 0.41                                          
   3   B_SOL              : 47.87                                         
   3                                                                      
   3  ERROR ESTIMATES.                                                    
   3   COORDINATE ERROR (MAXIMUM-LIKELIHOOD BASED)     : 0.370            
   3   PHASE ERROR (DEGREES, MAXIMUM-LIKELIHOOD BASED) : 18.000           
   3                                                                      
   3  B VALUES.                                                           
   3   FROM WILSON PLOT           (A**2) : 25.37                          
   3   MEAN B VALUE      (OVERALL, A**2) : 21.96                          
   3   OVERALL ANISOTROPIC B VALUE.                                       
   3    B11 (A**2) : 0.49780                                              
   3    B22 (A**2) : -1.92090                                             
   3    B33 (A**2) : 1.42310                                              
   3    B12 (A**2) : 0.00000                                              
   3    B13 (A**2) : 4.70700                                              
   3    B23 (A**2) : 0.00000                                              
   3                                                                      
   3  TWINNING INFORMATION.                                               
   3   FRACTION: NULL                                                     
   3   OPERATOR: NULL                                                     
   3                                                                      
   3  DEVIATIONS FROM IDEAL VALUES.                                       
   3                 RMSD          COUNT                                  
   3   BOND      :  0.011           5862                                  
   3   ANGLE     :  1.363           8061                                  
   3   CHIRALITY :  0.088            873                                  
   3   PLANARITY :  0.008           1038                                  
   3   DIHEDRAL  : 15.545           2137                                  
   3                                                                      
   3  TLS DETAILS                                                         
   3   NUMBER OF TLS GROUPS  : NULL                                       
   3                                                                      
   3  NCS DETAILS                                                         
   3   NUMBER OF NCS GROUPS : NULL                                        
   3                                                                      
   3  OTHER REFINEMENT REMARKS: NULL                                      
   4                                                                      
   4 4E3N COMPLIES WITH FORMAT V. 3.30, 13-JUL-11                         
 100                                                                      
 100 THIS ENTRY HAS BEEN PROCESSED BY RCSB ON 16-MAR-12.                  
 100 THE RCSB ID CODE IS RCSB071127.                                      
 200                                                                      
 200 EXPERIMENTAL DETAILS                                                 
 200  EXPERIMENT TYPE                : X-RAY DIFFRACTION                  
 200  DATE OF DATA COLLECTION        : 08-SEP-11                          
 200  TEMPERATURE           (KELVIN) : 80                                 
 200  PH                             : 8.8                                
 200  NUMBER OF CRYSTALS USED        : 1                                  
 200                                                                      
 200  SYNCHROTRON              (Y/N) : Y                                  
 200  RADIATION SOURCE               : ALS                                
 200  BEAMLINE                       : 8.3.1                              
 200  X-RAY GENERATOR MODEL          : NULL                               
 200  MONOCHROMATIC OR LAUE    (M/L) : M                                  
 200  WAVELENGTH OR RANGE        (A) : 1.11587                            
 200  MONOCHROMATOR                  : NULL                               
 200  OPTICS                         : NULL                               
 200                                                                      
 200  DETECTOR TYPE                  : CCD                                
 200  DETECTOR MANUFACTURER          : ADSC QUANTUM 315R                  
 200  INTENSITY-INTEGRATION SOFTWARE : NULL                               
 200  DATA SCALING SOFTWARE          : XSCALE                             
 200                                                                      
 200  NUMBER OF UNIQUE REFLECTIONS   : 127111                             
 200  RESOLUTION RANGE HIGH      (A) : 1.490                              
 200  RESOLUTION RANGE LOW       (A) : 29.574                             
 200  REJECTION CRITERIA  (SIGMA(I)) : -3.000                             
 200                                                                      
 200 OVERALL.                                                             
 200  COMPLETENESS FOR RANGE     (%) : 99.6                               
 200  DATA REDUNDANCY                : NULL                               
 200  R MERGE                    (I) : 0.04000                            
 200  R SYM                      (I) : NULL                               
 200  <I/SIGMA(I)> FOR THE DATA SET  : 18.1300                            
 200                                                                      
 200 IN THE HIGHEST RESOLUTION SHELL.                                     
 200  HIGHEST RESOLUTION SHELL, RANGE HIGH (A) : 1.49                     
 200  HIGHEST RESOLUTION SHELL, RANGE LOW  (A) : 1.53                     
 200  COMPLETENESS FOR SHELL     (%) : 99.7                               
 200  DATA REDUNDANCY IN SHELL       : NULL                               
 200  R MERGE FOR SHELL          (I) : 0.66600                            
 200  R SYM FOR SHELL            (I) : NULL                               
 200  <I/SIGMA(I)> FOR SHELL         : 2.050                              
 200                                                                      
 200 DIFFRACTION PROTOCOL: SINGLE WAVELENGTH                              
 200 METHOD USED TO DETERMINE THE STRUCTURE: MOLECULAR REPLACEMENT        
 200 SOFTWARE USED: NULL                                                  
 200 STARTING MODEL: PDB ENTRY 1KE4                                       
 200                                                                      
 200 REMARK: NULL                                                         
 280                                                                      
 280 CRYSTAL                                                              
 280 SOLVENT CONTENT, VS   (%): 50.93                                     
 280 MATTHEWS COEFFICIENT, VM (ANGSTROMS**3/DA): 2.51                     
 280                                                                      
 280 CRYSTALLIZATION CONDITIONS: 1.7 M POTASSIUM PHOSPHATE, PH 8.8,       
 280  VAPOR DIFFUSION, HANGING DROP, TEMPERATURE 293K                     
 290                                                                      
 290 CRYSTALLOGRAPHIC SYMMETRY                                            
 290 SYMMETRY OPERATORS FOR SPACE GROUP: C 1 2 1                          
 290                                                                      
 290      SYMOP   SYMMETRY                                                
 290     NNNMMM   OPERATOR                                                
 290       1555   X,Y,Z                                                   
 290       2555   -X,Y,-Z                                                 
 290       3555   X+1/2,Y+1/2,Z                                           
 290       4555   -X+1/2,Y+1/2,-Z                                         
 290                                                                      
 290     WHERE NNN -> OPERATOR NUMBER                                     
 290           MMM -> TRANSLATION VECTOR                                  
 290                                                                      
 290 CRYSTALLOGRAPHIC SYMMETRY TRANSFORMATIONS                            
 290 THE FOLLOWING TRANSFORMATIONS OPERATE ON THE ATOM/HETATM             
 290 RECORDS IN THIS ENTRY TO PRODUCE CRYSTALLOGRAPHICALLY                
 290 RELATED MOLECULES.                                                   
 290   SMTRY1   1  1.000000  0.000000  0.000000        0.00000            
 290   SMTRY2   1  0.000000  1.000000  0.000000        0.00000            
 290   SMTRY3   1  0.000000  0.000000  1.000000        0.00000            
 290   SMTRY1   2 -1.000000  0.000000  0.000000        0.00000            
 290   SMTRY2   2  0.000000  1.000000  0.000000        0.00000            
 290   SMTRY3   2  0.000000  0.000000 -1.000000        0.00000            
 290   SMTRY1   3  1.000000  0.000000  0.000000       59.08000            
 290   SMTRY2   3  0.000000  1.000000  0.000000       38.36500            
 290   SMTRY3   3  0.000000  0.000000  1.000000        0.00000            
 290   SMTRY1   4 -1.000000  0.000000  0.000000       59.08000            
 290   SMTRY2   4  0.000000  1.000000  0.000000       38.36500            
 290   SMTRY3   4  0.000000  0.000000 -1.000000        0.00000            
 290                                                                      
 290 REMARK: NULL                                                         
 300                                                                      
 300 BIOMOLECULE: 1, 2                                                    
 300 SEE REMARK 350 FOR THE AUTHOR PROVIDED AND/OR PROGRAM                
 300 GENERATED ASSEMBLY INFORMATION FOR THE STRUCTURE IN                  
 300 THIS ENTRY. THE REMARK MAY ALSO PROVIDE INFORMATION ON               
 300 BURIED SURFACE AREA.                                                 
 350                                                                      
 350 COORDINATES FOR A COMPLETE MULTIMER REPRESENTING THE KNOWN           
 350 BIOLOGICALLY SIGNIFICANT OLIGOMERIZATION STATE OF THE                
 350 MOLECULE CAN BE GENERATED BY APPLYING BIOMT TRANSFORMATIONS          
 350 GIVEN BELOW.  BOTH NON-CRYSTALLOGRAPHIC AND                          
 350 CRYSTALLOGRAPHIC OPERATIONS ARE GIVEN.                               
 350                                                                      
 350 BIOMOLECULE: 1                                                       
 350 AUTHOR DETERMINED BIOLOGICAL UNIT: MONOMERIC                         
 350 SOFTWARE DETERMINED QUATERNARY STRUCTURE: MONOMERIC                  
 350 SOFTWARE USED: PISA                                                  
 350 APPLY THE FOLLOWING TO CHAINS: A                                     
 350   BIOMT1   1  1.000000  0.000000  0.000000        0.00000            
 350   BIOMT2   1  0.000000  1.000000  0.000000        0.00000            
 350   BIOMT3   1  0.000000  0.000000  1.000000        0.00000            
 350                                                                      
 350 BIOMOLECULE: 2                                                       
 350 AUTHOR DETERMINED BIOLOGICAL UNIT: MONOMERIC                         
 350 SOFTWARE DETERMINED QUATERNARY STRUCTURE: MONOMERIC                  
 350 SOFTWARE USED: PISA                                                  
 350 APPLY THE FOLLOWING TO CHAINS: B                                     
 350   BIOMT1   1  1.000000  0.000000  0.000000        0.00000            
 350   BIOMT2   1  0.000000  1.000000  0.000000        0.00000            
 350   BIOMT3   1  0.000000  0.000000  1.000000        0.00000            
 470                                                                      
 470 MISSING ATOM                                                         
 470 THE FOLLOWING RESIDUES HAVE MISSING ATOMS (M=MODEL NUMBER;           
 470 RES=RESIDUE NAME; C=CHAIN IDENTIFIER; SSEQ=SEQUENCE NUMBER;          
 470 I=INSERTION CODE):                                                   
 470   M RES CSSEQI  ATOMS                                                
 470     GLU A  21    CD   OE1  OE2                                       
 470     GLN A  22    CG   CD   OE1  NE2                                  
 470     LYS A  24    CG   CD   CE   NZ                                   
 470     LYS A  37    CG   CD   CE   NZ                                   
 470     LYS A  99    CG   CD   CE   NZ                                   
 470     GLU A 124    CG   CD   OE1  OE2                                  
 470     ARG A 204    NE   CZ   NH1  NH2                                  
 470     LYS A 207    CG   CD   CE   NZ                                   
 470     ASN A 244    CG   OD1  ND2                                       
 470     LYS A 246    CG   CD   CE   NZ                                   
 470     SER A 282    OG                                                  
 470     LYS A 290    CG   CD   CE   NZ                                   
 470     LYS A 299    CD   CE   NZ                                        
 470     LYS B  37    CG   CD   CE   NZ                                   
 470     LYS B  50    CG   CD   CE   NZ                                   
 470     GLN B  52    CD   OE1  NE2                                       
 470     GLU B  95    CG   CD   OE1  OE2                                  
 470     ASP B 123    CG   OD1  OD2                                       
 470     LYS B 126    CG   CD   CE   NZ                                   
 470     GLU B 205    CG   CD   OE1  OE2                                  
 470     LYS B 207    CG   CD   CE   NZ                                   
 470     LYS B 246    CG   CD   CE   NZ                                   
 470     LYS B 299    CD   CE   NZ                                        
 470     GLU B 331    CG   CD   OE1  OE2                                  
 500                                                                      
 500 GEOMETRY AND STEREOCHEMISTRY                                         
 500 SUBTOPIC: TORSION ANGLES                                             
 500                                                                      
 500 TORSION ANGLES OUTSIDE THE EXPECTED RAMACHANDRAN REGIONS:            
 500 (M=MODEL NUMBER; RES=RESIDUE NAME; C=CHAIN IDENTIFIER;               
 500 SSEQ=SEQUENCE NUMBER; I=INSERTION CODE).                             
 500                                                                      
 500 STANDARD TABLE:                                                      
 500 FORMAT:(10X,I3,1X,A3,1X,A1,I4,A1,4X,F7.2,3X,F7.2)                    
 500                                                                      
 500 EXPECTED VALUES: GJ KLEYWEGT AND TA JONES (1996). PHI/PSI-           
 500 CHOLOGY: RAMACHANDRAN REVISITED. STRUCTURE 4, 1395 - 1400            
 500                                                                      
 500  M RES CSSEQI        PSI       PHI                                   
 500    SER A 154      -64.80    -92.01                                   
 500    VAL A 178      -59.54   -125.94                                   
 500    TYR A 221       19.67   -158.46                                   
 500    ASN A 341       43.65    -99.96                                   
 500    LYS B 126      -53.39   -128.31                                   
 500    SER B 154      -65.81    -92.73                                   
 500    VAL B 178      -57.68   -123.40                                   
 500    TYR B 221       22.34   -157.14                                   
 500    ASN B 341       44.56   -101.49                                   
 500                                                                      
 500 REMARK: NULL                                                         
 615                                                                      
 615 ZERO OCCUPANCY ATOM                                                  
 615 THE FOLLOWING RESIDUES HAVE ATOMS MODELED WITH ZERO                  
 615 OCCUPANCY. THE LOCATION AND PROPERTIES OF THESE ATOMS                
 615 MAY NOT BE RELIABLE. (M=MODEL NUMBER; RES=RESIDUE NAME;              
 615 C=CHAIN IDENTIFIER; SSEQ=SEQUENCE NUMBER; I=INSERTION CODE):         
 615   M RES C SSEQI                                                      
 615     HOH B  691                                                       
 800                                                                      
 800 SITE                                                                 
 800 SITE_IDENTIFIER: AC1                                                 
 800 EVIDENCE_CODE: SOFTWARE                                              
 800 SITE_DESCRIPTION: BINDING SITE FOR RESIDUE 0NE A 401                 
 800                                                                      
 800 SITE_IDENTIFIER: AC2                                                 
 800 EVIDENCE_CODE: SOFTWARE                                              
 800 SITE_DESCRIPTION: BINDING SITE FOR RESIDUE PO4 A 402                 
 800                                                                      
 800 SITE_IDENTIFIER: AC3                                                 
 800 EVIDENCE_CODE: SOFTWARE                                              
 800 SITE_DESCRIPTION: BINDING SITE FOR RESIDUE 0NE B 401                 
 800                                                                      
 800 SITE_IDENTIFIER: AC4                                                 
 800 EVIDENCE_CODE: SOFTWARE                                              
 800 SITE_DESCRIPTION: BINDING SITE FOR RESIDUE PO4 B 402                 
 800                                                                      
 800 SITE_IDENTIFIER: AC5                                                 
 800 EVIDENCE_CODE: SOFTWARE                                              
 800 SITE_DESCRIPTION: BINDING SITE FOR RESIDUE PO4 B 403                 
 900                                                                      
 900 RELATED ENTRIES                                                      
 900 RELATED ID: 4E3I   RELATED DB: PDB                                   
 900 RELATED ID: 4E3J   RELATED DB: PDB                                   
 900 RELATED ID: 4E3K   RELATED DB: PDB                                   
 900 RELATED ID: 4E3L   RELATED DB: PDB                                   
 900 RELATED ID: 4E3M   RELATED DB: PDB                                   
 900 RELATED ID: 4E3O   RELATED DB: PDB                                   

>  <DBREF>
 4E3N A    4   361  UNP    P00811   AMPC_ECOLI      20    377             
 4E3N B    4   361  UNP    P00811   AMPC_ECOLI      20    377             

>  <SEQRES>
   1 A  358  ALA PRO GLN GLN ILE ASN ASP ILE VAL HIS ARG THR ILE          
   2 A  358  THR PRO LEU ILE GLU GLN GLN LYS ILE PRO GLY MET ALA          
   3 A  358  VAL ALA VAL ILE TYR GLN GLY LYS PRO TYR TYR PHE THR          
   4 A  358  TRP GLY TYR ALA ASP ILE ALA LYS LYS GLN PRO VAL THR          
   5 A  358  GLN GLN THR LEU PHE GLU LEU GLY SER VAL SER LYS THR          
   6 A  358  PHE THR GLY VAL LEU GLY GLY ASP ALA ILE ALA ARG GLY          
   7 A  358  GLU ILE LYS LEU SER ASP PRO THR THR LYS TYR TRP PRO          
   8 A  358  GLU LEU THR ALA LYS GLN TRP ASN GLY ILE THR LEU LEU          
   9 A  358  HIS LEU ALA THR TYR THR ALA GLY GLY LEU PRO LEU GLN          
  10 A  358  VAL PRO ASP GLU VAL LYS SER SER SER ASP LEU LEU ARG          
  11 A  358  PHE TYR GLN ASN TRP GLN PRO ALA TRP ALA PRO GLY THR          
  12 A  358  GLN ARG LEU TYR ALA ASN SER SER ILE GLY LEU PHE GLY          
  13 A  358  ALA LEU ALA VAL LYS PRO SER GLY LEU SER PHE GLU GLN          
  14 A  358  ALA MET GLN THR ARG VAL PHE GLN PRO LEU LYS LEU ASN          
  15 A  358  HIS THR TRP ILE ASN VAL PRO PRO ALA GLU GLU LYS ASN          
  16 A  358  TYR ALA TRP GLY TYR ARG GLU GLY LYS ALA VAL HIS VAL          
  17 A  358  SER PRO GLY ALA LEU ASP ALA GLU ALA TYR GLY VAL LYS          
  18 A  358  SER THR ILE GLU ASP MET ALA ARG TRP VAL GLN SER ASN          
  19 A  358  LEU LYS PRO LEU ASP ILE ASN GLU LYS THR LEU GLN GLN          
  20 A  358  GLY ILE GLN LEU ALA GLN SER ARG TYR TRP GLN THR GLY          
  21 A  358  ASP MET TYR GLN GLY LEU GLY TRP GLU MET LEU ASP TRP          
  22 A  358  PRO VAL ASN PRO ASP SER ILE ILE ASN GLY SER ASP ASN          
  23 A  358  LYS ILE ALA LEU ALA ALA ARG PRO VAL LYS ALA ILE THR          
  24 A  358  PRO PRO THR PRO ALA VAL ARG ALA SER TRP VAL HIS LYS          
  25 A  358  THR GLY ALA THR GLY GLY PHE GLY SER TYR VAL ALA PHE          
  26 A  358  ILE PRO GLU LYS GLU LEU GLY ILE VAL MET LEU ALA ASN          
  27 A  358  LYS ASN TYR PRO ASN PRO ALA ARG VAL ASP ALA ALA TRP          
  28 A  358  GLN ILE LEU ASN ALA LEU GLN                                  
   1 B  358  ALA PRO GLN GLN ILE ASN ASP ILE VAL HIS ARG THR ILE          
   2 B  358  THR PRO LEU ILE GLU GLN GLN LYS ILE PRO GLY MET ALA          
   3 B  358  VAL ALA VAL ILE TYR GLN GLY LYS PRO TYR TYR PHE THR          
   4 B  358  TRP GLY TYR ALA ASP ILE ALA LYS LYS GLN PRO VAL THR          
   5 B  358  GLN GLN THR LEU PHE GLU LEU GLY SER VAL SER LYS THR          
   6 B  358  PHE THR GLY VAL LEU GLY GLY ASP ALA ILE ALA ARG GLY          
   7 B  358  GLU ILE LYS LEU SER ASP PRO THR THR LYS TYR TRP PRO          
   8 B  358  GLU LEU THR ALA LYS GLN TRP ASN GLY ILE THR LEU LEU          
   9 B  358  HIS LEU ALA THR TYR THR ALA GLY GLY LEU PRO LEU GLN          
  10 B  358  VAL PRO ASP GLU VAL LYS SER SER SER ASP LEU LEU ARG          
  11 B  358  PHE TYR GLN ASN TRP GLN PRO ALA TRP ALA PRO GLY THR          
  12 B  358  GLN ARG LEU TYR ALA ASN SER SER ILE GLY LEU PHE GLY          
  13 B  358  ALA LEU ALA VAL LYS PRO SER GLY LEU SER PHE GLU GLN          
  14 B  358  ALA MET GLN THR ARG VAL PHE GLN PRO LEU LYS LEU ASN          
  15 B  358  HIS THR TRP ILE ASN VAL PRO PRO ALA GLU GLU LYS ASN          
  16 B  358  TYR ALA TRP GLY TYR ARG GLU GLY LYS ALA VAL HIS VAL          
  17 B  358  SER PRO GLY ALA LEU ASP ALA GLU ALA TYR GLY VAL LYS          
  18 B  358  SER THR ILE GLU ASP MET ALA ARG TRP VAL GLN SER ASN          
  19 B  358  LEU LYS PRO LEU ASP ILE ASN GLU LYS THR LEU GLN GLN          
  20 B  358  GLY ILE GLN LEU ALA GLN SER ARG TYR TRP GLN THR GLY          
  21 B  358  ASP MET TYR GLN GLY LEU GLY TRP GLU MET LEU ASP TRP          
  22 B  358  PRO VAL ASN PRO ASP SER ILE ILE ASN GLY SER ASP ASN          
  23 B  358  LYS ILE ALA LEU ALA ALA ARG PRO VAL LYS ALA ILE THR          
  24 B  358  PRO PRO THR PRO ALA VAL ARG ALA SER TRP VAL HIS LYS          
  25 B  358  THR GLY ALA THR GLY GLY PHE GLY SER TYR VAL ALA PHE          
  26 B  358  ILE PRO GLU LYS GLU LEU GLY ILE VAL MET LEU ALA ASN          
  27 B  358  LYS ASN TYR PRO ASN PRO ALA ARG VAL ASP ALA ALA TRP          
  28 B  358  GLN ILE LEU ASN ALA LEU GLN                                  

>  <HET>
 0NE  A 401      23                                                       
 PO4  A 402       5                                                       
 0NE  B 401      23                                                       
 PO4  B 402       5                                                       
 PO4  B 403       5                                                       

>  <HETNAM>
     0NE [({[4-(1H-TETRAZOL-5-YL)-2-(TRIFLUOROMETHYL)                     
   2 0NE  PHENYL]SULFONYL}AMINO)METHYL]BORONIC ACID                       
     PO4 PHOSPHATE ION                                                    

>  <FORMUL>
   3  0NE    2(C9 H9 B F3 N5 O4 S)                                        
   4  PO4    3(O4 P 3-)                                                   
   8  HOH   *549(H2 O)                                                    

>  <HELIX>
   1   1 PRO A    5  LYS A   24  1                                  20    
   2   2 VAL A   65  ARG A   80  1                                  16    
   3   3 PRO A   88  TYR A   92  5                                   5    
   4   4 ALA A   98  ASN A  102  5                                   5    
   5   5 THR A  105  THR A  111  1                                   7    
   6   6 SER A  127  TRP A  138  1                                  12    
   7   7 ALA A  151  VAL A  163  1                                  13    
   8   8 SER A  169  VAL A  178  1                                  10    
   9   9 PRO A  192  TYR A  199  5                                   8    
  10  10 LEU A  216  GLY A  222  1                                   7    
  11  11 THR A  226  LYS A  239  1                                  14    
  12  12 PRO A  240  ILE A  243  5                                   4    
  13  13 GLU A  245  GLN A  256  1                                  12    
  14  14 ASN A  279  ASP A  288  1                                  10    
  15  15 ASP A  288  LEU A  293  1                                   6    
  16  16 PRO A  330  GLU A  333  5                                   4    
  17  17 PRO A  345  GLN A  361  1                                  17    
  18  18 PRO B    5  LYS B   24  1                                  20    
  19  19 VAL B   65  ARG B   80  1                                  16    
  20  20 PRO B   88  TYR B   92  5                                   5    
  21  21 ALA B   98  ASN B  102  5                                   5    
  22  22 THR B  105  THR B  111  1                                   7    
  23  23 SER B  127  TRP B  138  1                                  12    
  24  24 ALA B  151  VAL B  163  1                                  13    
  25  25 SER B  169  VAL B  178  1                                  10    
  26  26 PRO B  192  TYR B  199  5                                   8    
  27  27 LEU B  216  GLY B  222  1                                   7    
  28  28 THR B  226  LYS B  239  1                                  14    
  29  29 PRO B  240  ILE B  243  5                                   4    
  30  30 GLU B  245  GLN B  256  1                                  12    
  31  31 ASN B  279  SER B  287  1                                   9    
  32  32 ASP B  288  LEU B  293  1                                   6    
  33  33 PRO B  330  GLU B  333  5                                   4    
  34  34 PRO B  345  GLN B  361  1                                  17    

>  <SHEET>
   1   A10 GLN A  52  PRO A  53  0                                        
   2   A10 LYS A  37  ASP A  47 -1  N  ALA A  46   O  GLN A  52           
   3   A10 GLY A  27  TYR A  34 -1  N  VAL A  30   O  PHE A  41           
   4   A10 LEU A 334  ALA A 340 -1  O  LEU A 339   N  ALA A  29           
   5   A10 PHE A 322  ILE A 329 -1  N  ILE A 329   O  LEU A 334           
   6   A10 SER A 311  THR A 319 -1  N  GLY A 317   O  SER A 324           
   7   A10 GLU A 272  ASP A 275 -1  N  LEU A 274   O  TRP A 312           
   8   A10 MET A 265  GLN A 267 -1  N  TYR A 266   O  MET A 273           
   9   A10 ARG A 258  THR A 262 -1  N  TYR A 259   O  GLN A 267           
  10   A10 LYS A 299  THR A 305 -1  O  LYS A 299   N  GLN A 261           
   1   B 2 PHE A  60  GLU A  61  0                                        
   2   B 2 LYS A 224  SER A 225 -1  O  SER A 225   N  PHE A  60           
   1   C 2 GLN A 147  ARG A 148  0                                        
   2   C 2 ARG A 296  PRO A 297 -1  O  ARG A 296   N  ARG A 148           
   1   D 2 GLY A 202  ARG A 204  0                                        
   2   D 2 LYS A 207  VAL A 209 -1  O  VAL A 209   N  GLY A 202           
   1   E10 GLN B  52  PRO B  53  0                                        
   2   E10 LYS B  37  ASP B  47 -1  N  ALA B  46   O  GLN B  52           
   3   E10 GLY B  27  TYR B  34 -1  N  TYR B  34   O  LYS B  37           
   4   E10 LEU B 334  ALA B 340 -1  O  GLY B 335   N  ILE B  33           
   5   E10 PHE B 322  ILE B 329 -1  N  ALA B 327   O  ILE B 336           
   6   E10 SER B 311  THR B 319 -1  N  GLY B 317   O  SER B 324           
   7   E10 GLU B 272  ASP B 275 -1  N  LEU B 274   O  TRP B 312           
   8   E10 MET B 265  GLN B 267 -1  N  TYR B 266   O  MET B 273           
   9   E10 ARG B 258  THR B 262 -1  N  THR B 262   O  MET B 265           
  10   E10 LYS B 299  THR B 305 -1  O  THR B 305   N  ARG B 258           
   1   F 2 PHE B  60  GLU B  61  0                                        
   2   F 2 LYS B 224  SER B 225 -1  O  SER B 225   N  PHE B  60           
   1   G 2 GLN B 147  ARG B 148  0                                        
   2   G 2 ARG B 296  PRO B 297 -1  O  ARG B 296   N  ARG B 148           
   1   H 2 GLY B 202  ARG B 204  0                                        
   2   H 2 LYS B 207  VAL B 209 -1  O  VAL B 209   N  GLY B 202           

>  <LINK>
       OG  SER A  64                 B03 0NE A 401     1555   1555  1.46  
       OG  SER B  64                 B03 0NE B 401     1555   1555  1.45  

>  <CISPEP>
   1 TRP A  276    PRO A  277          0         5.55                     
   2 THR A  302    PRO A  303          0        -1.98                     
   3 TRP B  276    PRO B  277          0         3.41                     
   4 THR B  302    PRO B  303          0        -0.89                     

>  <SITE>
   1 AC1 13 SER A  64  TYR A 150  ASN A 152  VAL A 211                    
   2 AC1 13 SER A 212  ALA A 318  THR A 319  GLY A 320                    
   3 AC1 13 ASN A 343  HOH A 769  HOH A 770  HOH A 771                    
   4 AC1 13 HOH A 794                                                     
   1 AC2  5 GLN A 261  GLY A 263  PRO A 297  TYR B  45                    
   2 AC2  5 LYS B  51                                                     
   1 AC3 13 SER B  64  GLN B 120  TYR B 150  ASN B 152                    
   2 AC3 13 VAL B 211  SER B 212  ALA B 318  THR B 319                    
   3 AC3 13 GLY B 320  HOH B 738  HOH B 739  HOH B 741                    
   4 AC3 13 HOH B 743                                                     
   1 AC4  6 PHE A  41  THR A  42  HOH A 647  HOH A 649                    
   2 AC4  6 GLY B 116  ALA B 141                                          
   1 AC5  3 ARG A 133  HIS A 186  LYS B 290                               

>  <ORIGX1>
      1.000000  0.000000  0.000000        0.00000                         

>  <ORIGX2>
      0.000000  1.000000  0.000000        0.00000                         

>  <ORIGX3>
      0.000000  0.000000  1.000000        0.00000                         

>  <SCALE1>
      0.008463  0.000000  0.004234        0.00000                         

>  <SCALE2>
      0.000000  0.013033  0.000000        0.00000                         

>  <SCALE3>
      0.000000  0.000000  0.011422        0.00000                         

>  <ANISOU>
  476  N   SER A  64     1011   1657   1486   -448   -407   -352       N  
  477  CA  SER A  64     1200   1564   1467   -487   -374   -461       C  
  478  C   SER A  64      855   1673   1181   -343   -358   -133       C  
  479  O   SER A  64      858   1665   1314   -342   -160   -233       O  
  480  CB  SER A  64     1468   1547   1280   -387   -508   -486       C  
  481  OG  SER A  64     1419   1752   1478   -187   -420     26       O  
 5623  B03 0NE A 401     1251   1900   1877    -79   -509   -207       B  
 5624  O04 0NE A 401     1354   2056   1894    -95     92     50       O  
 5625  O05 0NE A 401     1512   1805   2031   -250   -480   -211       O  
 5626  C06 0NE A 401     1124   2089   2488    213   -682     32       C  
 5627  N07 0NE A 401     1565   2068   2370    378   -718    190       N  
 5628  S08 0NE A 401     2027   2286   2625     92   -293      2       S  
 5629  O09 0NE A 401     2140   2284   2806    278   -666    -25       O  
 5630  O10 0NE A 401     2073   2614   2597    -83   -367     78       O  
 5631  C11 0NE A 401     1940   2375   2422   -177   -337   -118       C  
 5632  C12 0NE A 401     1684   2565   2460     19   -392     60       C  
 5633  C13 0NE A 401     1901   2585   2283   -302   -200   -121       C  
 5634  C14 0NE A 401     2000   2463   2208   -427   -392    183       C  
 5635  C15 0NE A 401     2060   2196   1978   -439   -721    143       C  
 5636  N16 0NE A 401     2350   1935   2242   -306   -719    -88       N  
 5637  N17 0NE A 401     2460   2315   2684   -319   -563    -99       N  
 5638  N18 0NE A 401     2357   2442   2218   -727   -570     63       N  
 5639  N19 0NE A 401     2251   2348   2182   -672   -768    127       N  
 5640  C20 0NE A 401     2030   2275   2119     25   -366    557       C  
 5641  C21 0NE A 401     1983   2477   2322     76   -215    163       C  
 5642  C22 0NE A 401     2261   2920   2474    -12    -54    -57       C  
 5643  F23 0NE A 401     2115   2792   2390   -533     90   -231       F  
 5644  F24 0NE A 401     2365   2998   2865    261    133     13       F  
 5645  F25 0NE A 401     2606   2811   2630    211     28   -133       F  

>  <MASTER>
      321    0    5   34   32    0   13    6 6123    2   63   56          

$$$$
