start_structures/Ligand_Substrate/Ligand_Complex_Stripped/0NG_4E3O.pdb
 OpenBabel08222315213D

 16 15  0  0  1  0  0  0  0  0999 V2000
   26.5380    1.4760   16.0810 N   0  0  0  0  0  0  0  0  0  0  0  0
   27.9000    1.9110   16.3760 C   0  0  2  0  0  0  0  0  0  0  0  0
   28.7590    1.0080   17.2570 C   0  0  0  0  0  0  0  0  0  0  0  0
   29.9380    1.2630   17.4360 O   0  0  0  0  0  0  0  0  0  0  0  0
   27.9140    3.3200   16.9650 C   0  0  0  0  0  0  0  0  0  0  0  0
   27.4150    4.2340   15.9960 O   0  0  0  0  0  0  0  0  0  0  0  0
   26.2210    4.9720   16.2820 B   0  0  0  0  0  0  0  0  0  0  0  0
   25.1640    3.9830   16.5720 O   0  0  0  0  0  0  0  0  0  0  0  0
   26.3860    5.8280   17.4480 O   0  0  0  0  0  0  0  0  0  0  0  0
   25.8650    5.7950   14.9930 C   0  0  0  0  0  0  0  0  0  0  0  0
   24.4530    6.1520   14.8850 N   0  0  0  0  0  0  0  0  0  0  0  0
   23.7340    6.2360   13.4460 S   0  0  0  0  0  0  0  0  0  0  0  0
   22.4460    6.8440   13.5520 O   0  0  0  0  0  0  0  0  0  0  0  0
   24.4470    7.1600   12.6080 O   0  0  0  0  0  0  0  0  0  0  0  0
   23.6390    4.6490   12.6630 C   0  0  0  0  0  0  0  0  0  0  0  0
   22.4770    4.4380   11.3960 Cl  0  0  0  0  0  0  0  0  0  0  0  0
  2  1  1  1  0  0  0
  2  5  1  0  0  0  0
  2  3  1  0  0  0  0
  3  4  2  0  0  0  0
  6  7  1  0  0  0  0
  6  5  1  0  0  0  0
  7  8  1  0  0  0  0
  7  9  1  0  0  0  0
  7 10  1  0  0  0  0
 10 11  1  0  0  0  0
 11 12  1  0  0  0  0
 12 13  2  0  0  0  0
 12 14  2  0  0  0  0
 12 15  1  0  0  0  0
 15 16  1  0  0  0  0
M  END
>  <HEADER>
    HYDROLASE/HYDROLASE INHIBITOR           09-MAR-12   4E3O              

>  <TITLE>
    CRYSTAL STRUCTURE OF AMPC BETA-LACTAMASE IN COMPLEX WITH A SMALL      
   2 CHLOROMETHYL SULFONAMIDE BORONIC ACID INHIBITOR                      

>  <COMPND>
    MOL_ID: 1;                                                            
   2 MOLECULE: BETA-LACTAMASE;                                            
   3 CHAIN: A, B;                                                         
   4 SYNONYM: CEPHALOSPORINASE;                                           
   5 EC: 3.5.2.6;                                                         
   6 ENGINEERED: YES                                                      

>  <SOURCE>
    MOL_ID: 1;                                                            
   2 ORGANISM_SCIENTIFIC: ESCHERICHIA COLI;                               
   3 ORGANISM_TAXID: 83333;                                               
   4 STRAIN: K12;                                                         
   5 GENE: AMPA, AMPC, B4150, JW4111;                                     
   6 EXPRESSION_SYSTEM: ESCHERICHIA COLI;                                 
   7 EXPRESSION_SYSTEM_TAXID: 562;                                        
   8 EXPRESSION_SYSTEM_STRAIN: JM109;                                     
   9 EXPRESSION_SYSTEM_VECTOR_TYPE: PLASMID;                              
  10 EXPRESSION_SYSTEM_PLASMID: POGO295                                   

>  <KEYWDS>
    AMPC BETA-LACTAMASE, CLASS C, CEPHALOSPORINASE, HYDROLASE-HYDROLASE   
   2 INHIBITOR COMPLEX                                                    

>  <EXPDTA>
    X-RAY DIFFRACTION                                                     

>  <AUTHOR>
    O.EIDAM,B.K.SHOICHET                                                  

>  <REVDAT>
   2   07-NOV-12 4E3O    1       JRNL                                     
   1   26-SEP-12 4E3O    0                                                

>  <JRNL>
      AUTH   O.EIDAM,C.ROMAGNOLI,G.DALMASSO,S.BARELIER,E.CASELLI,         
      AUTH 2 R.BONNET,B.K.SHOICHET,F.PRATI                                
      TITL   FRAGMENT-GUIDED DESIGN OF SUBNANOMOLAR BETA-LACTAMASE        
      TITL 2 INHIBITORS ACTIVE IN VIVO.                                   
      REF    PROC.NATL.ACAD.SCI.USA        V. 109 17448 2012              
      REFN                   ISSN 0027-8424                               
      PMID   23043117                                                     
      DOI    10.1073/PNAS.1208337109                                      

>  <REMARK>
   2                                                                      
   2 RESOLUTION.    1.60 ANGSTROMS.                                       
   3                                                                      
   3 REFINEMENT.                                                          
   3   PROGRAM     : PHENIX (PHENIX.REFINE: 1.7.1_743)                    
   3   AUTHORS     : PAUL ADAMS,PAVEL AFONINE,VICENT CHEN,IAN             
   3               : DAVIS,KRESHNA GOPAL,RALF GROSSE-                     
   3               : KUNSTLEVE,LI-WEI HUNG,ROBERT IMMORMINO,              
   3               : TOM IOERGER,AIRLIE MCCOY,ERIK MCKEE,NIGEL            
   3               : MORIARTY,REETAL PAI,RANDY READ,JANE                  
   3               : RICHARDSON,DAVID RICHARDSON,TOD ROMO,JIM             
   3               : SACCHETTINI,NICHOLAS SAUTER,JACOB SMITH,             
   3               : LAURENT STORONI,TOM TERWILLIGER,PETER                
   3               : ZWART                                                
   3                                                                      
   3    REFINEMENT TARGET : ML                                            
   3                                                                      
   3  DATA USED IN REFINEMENT.                                            
   3   RESOLUTION RANGE HIGH (ANGSTROMS) : 1.60                           
   3   RESOLUTION RANGE LOW  (ANGSTROMS) : 29.56                          
   3   MIN(FOBS/SIGMA_FOBS)              : 1.990                          
   3   COMPLETENESS FOR RANGE        (%) : 99.4                           
   3   NUMBER OF REFLECTIONS             : 102678                         
   3                                                                      
   3  FIT TO DATA USED IN REFINEMENT.                                     
   3   R VALUE     (WORKING + TEST SET) : 0.162                           
   3   R VALUE            (WORKING SET) : 0.161                           
   3   FREE R VALUE                     : 0.185                           
   3   FREE R VALUE TEST SET SIZE   (%) : 3.700                           
   3   FREE R VALUE TEST SET COUNT      : 3799                            
   3                                                                      
   3  FIT TO DATA USED IN REFINEMENT (IN BINS).                           
   3   BIN  RESOLUTION RANGE  COMPL.    NWORK NFREE   RWORK  RFREE        
   3     1 29.5684 -  4.7934    0.96     3624   139  0.1712 0.1996        
   3     2  4.7934 -  3.8073    1.00     3715   164  0.1298 0.1433        
   3     3  3.8073 -  3.3267    0.99     3655   136  0.1382 0.1596        
   3     4  3.3267 -  3.0229    0.99     3649   146  0.1581 0.1665        
   3     5  3.0229 -  2.8064    0.99     3637   166  0.1613 0.1674        
   3     6  2.8064 -  2.6411    0.99     3650   149  0.1629 0.1806        
   3     7  2.6411 -  2.5089    0.99     3677   148  0.1633 0.2118        
   3     8  2.5089 -  2.3997    0.99     3672   130  0.1566 0.1763        
   3     9  2.3997 -  2.3074    0.99     3653   146  0.1545 0.2019        
   3    10  2.3074 -  2.2278    0.99     3691   130  0.1496 0.1801        
   3    11  2.2278 -  2.1581    0.99     3666   136  0.1553 0.1745        
   3    12  2.1581 -  2.0965    1.00     3647   160  0.1557 0.2017        
   3    13  2.0965 -  2.0413    1.00     3650   149  0.1522 0.1703        
   3    14  2.0413 -  1.9915    1.00     3691   129  0.1545 0.2096        
   3    15  1.9915 -  1.9462    1.00     3667   145  0.1633 0.2073        
   3    16  1.9462 -  1.9048    0.99     3635   135  0.1662 0.2029        
   3    17  1.9048 -  1.8667    1.00     3706    86  0.1748 0.2057        
   3    18  1.8667 -  1.8315    1.00     3680   126  0.1800 0.2187        
   3    19  1.8315 -  1.7988    1.00     3652   150  0.1738 0.2171        
   3    20  1.7988 -  1.7683    1.00     3649   154  0.1884 0.2195        
   3    21  1.7683 -  1.7398    1.00     3672   139  0.1920 0.2032        
   3    22  1.7398 -  1.7130    1.00     3719    88  0.2015 0.1899        
   3    23  1.7130 -  1.6878    1.00     3644   141  0.2058 0.2587        
   3    24  1.6878 -  1.6641    1.00     3674   153  0.2219 0.2425        
   3    25  1.6641 -  1.6416    1.00     3597   150  0.2411 0.2764        
   3    26  1.6416 -  1.6203    1.00     3689   154  0.2477 0.2770        
   3    27  1.6203 -  1.6000    1.00     3618   150  0.2497 0.3141        
   3                                                                      
   3  BULK SOLVENT MODELLING.                                             
   3   METHOD USED        : FLAT BULK SOLVENT MODEL                       
   3   SOLVENT RADIUS     : 1.00                                          
   3   SHRINKAGE RADIUS   : 0.72                                          
   3   K_SOL              : 0.39                                          
   3   B_SOL              : 52.53                                         
   3                                                                      
   3  ERROR ESTIMATES.                                                    
   3   COORDINATE ERROR (MAXIMUM-LIKELIHOOD BASED)     : 0.410            
   3   PHASE ERROR (DEGREES, MAXIMUM-LIKELIHOOD BASED) : 18.860           
   3                                                                      
   3  B VALUES.                                                           
   3   FROM WILSON PLOT           (A**2) : 28.22                          
   3   MEAN B VALUE      (OVERALL, A**2) : 25.06                          
   3   OVERALL ANISOTROPIC B VALUE.                                       
   3    B11 (A**2) : -1.48730                                             
   3    B22 (A**2) : 2.48600                                              
   3    B33 (A**2) : -0.99880                                             
   3    B12 (A**2) : 0.00000                                              
   3    B13 (A**2) : 1.78750                                              
   3    B23 (A**2) : -0.00000                                             
   3                                                                      
   3  TWINNING INFORMATION.                                               
   3   FRACTION: NULL                                                     
   3   OPERATOR: NULL                                                     
   3                                                                      
   3  DEVIATIONS FROM IDEAL VALUES.                                       
   3                 RMSD          COUNT                                  
   3   BOND      :  0.010           5760                                  
   3   ANGLE     :  1.305           7901                                  
   3   CHIRALITY :  0.089            861                                  
   3   PLANARITY :  0.007           1018                                  
   3   DIHEDRAL  : 13.394           2060                                  
   3                                                                      
   3  TLS DETAILS                                                         
   3   NUMBER OF TLS GROUPS  : 6                                          
   3   TLS GROUP : 1                                                      
   3    SELECTION: (chain A and resid 4:80)                               
   3    ORIGIN FOR THE GROUP (A):  21.9230  -9.6392  24.3951              
   3    T TENSOR                                                          
   3      T11:   0.1874 T22:   0.1412                                     
   3      T33:   0.1381 T12:  -0.0613                                     
   3      T13:   0.0110 T23:  -0.0159                                     
   3    L TENSOR                                                          
   3      L11:   0.8143 L22:   0.8060                                     
   3      L33:   0.7119 L12:   0.5211                                     
   3      L13:  -0.0942 L23:  -0.0704                                     
   3    S TENSOR                                                          
   3      S11:   0.0785 S12:  -0.1761 S13:  -0.0050                       
   3      S21:   0.1263 S22:  -0.0909 S23:   0.0963                       
   3      S31:   0.1616 S32:  -0.1117 S33:   0.0088                       
   3   TLS GROUP : 2                                                      
   3    SELECTION: (chain A and resid 81:176)                             
   3    ORIGIN FOR THE GROUP (A):  38.9523   9.5518   7.1515              
   3    T TENSOR                                                          
   3      T11:   0.1555 T22:   0.1207                                     
   3      T33:   0.1525 T12:  -0.0167                                     
   3      T13:   0.0051 T23:   0.0113                                     
   3    L TENSOR                                                          
   3      L11:   0.8871 L22:   1.3782                                     
   3      L33:   0.8857 L12:  -0.0588                                     
   3      L13:  -0.3365 L23:  -0.3614                                     
   3    S TENSOR                                                          
   3      S11:   0.0179 S12:   0.1296 S13:   0.1076                       
   3      S21:  -0.1879 S22:  -0.0259 S23:  -0.0912                       
   3      S31:  -0.0104 S32:   0.0179 S33:   0.0024                       
   3   TLS GROUP : 3                                                      
   3    SELECTION: (chain A and resid 177:361)                            
   3    ORIGIN FOR THE GROUP (A):  31.0461  -2.1958  22.5246              
   3    T TENSOR                                                          
   3      T11:   0.1406 T22:   0.1011                                     
   3      T33:   0.1193 T12:  -0.0262                                     
   3      T13:  -0.0050 T23:  -0.0042                                     
   3    L TENSOR                                                          
   3      L11:   1.4268 L22:   1.0915                                     
   3      L33:   0.8084 L12:   0.8408                                     
   3      L13:   0.1082 L23:   0.0308                                     
   3    S TENSOR                                                          
   3      S11:   0.0889 S12:  -0.1800 S13:   0.0058                       
   3      S21:   0.1615 S22:  -0.1147 S23:  -0.0334                       
   3      S31:   0.0715 S32:  -0.0105 S33:   0.0235                       
   3   TLS GROUP : 4                                                      
   3    SELECTION: (chain B and resid 4:66)                               
   3    ORIGIN FOR THE GROUP (A):  84.0808 -13.3036  21.7766              
   3    T TENSOR                                                          
   3      T11:   0.2109 T22:   0.4569                                     
   3      T33:   0.2050 T12:   0.1157                                     
   3      T13:  -0.0003 T23:  -0.0191                                     
   3    L TENSOR                                                          
   3      L11:   0.5663 L22:   0.7989                                     
   3      L33:   0.3917 L12:  -0.1663                                     
   3      L13:   0.1396 L23:  -0.0639                                     
   3    S TENSOR                                                          
   3      S11:  -0.0368 S12:   0.0061 S13:  -0.1683                       
   3      S21:  -0.0565 S22:   0.0679 S23:  -0.1679                       
   3      S31:   0.3026 S32:   0.5454 S33:  -0.0284                       
   3   TLS GROUP : 5                                                      
   3    SELECTION: (chain B and resid 67:172)                             
   3    ORIGIN FOR THE GROUP (A):  64.0736  10.9382  35.6988              
   3    T TENSOR                                                          
   3      T11:   0.1642 T22:   0.1869                                     
   3      T33:   0.1255 T12:  -0.0496                                     
   3      T13:   0.0056 T23:   0.0009                                     
   3    L TENSOR                                                          
   3      L11:   0.4742 L22:   1.2221                                     
   3      L33:   0.8678 L12:   0.0218                                     
   3      L13:  -0.1244 L23:   0.2011                                     
   3    S TENSOR                                                          
   3      S11:  -0.0046 S12:  -0.1360 S13:   0.0436                       
   3      S21:   0.1731 S22:   0.0881 S23:   0.0398                       
   3      S31:  -0.0954 S32:   0.1489 S33:  -0.0784                       
   3   TLS GROUP : 6                                                      
   3    SELECTION: (chain B and resid 173:361)                            
   3    ORIGIN FOR THE GROUP (A):  71.6622  -3.4309  24.2506              
   3    T TENSOR                                                          
   3      T11:   0.1049 T22:   0.1960                                     
   3      T33:   0.1200 T12:  -0.0281                                     
   3      T13:  -0.0113 T23:  -0.0042                                     
   3    L TENSOR                                                          
   3      L11:   0.7190 L22:   1.0566                                     
   3      L33:   1.2774 L12:  -0.5175                                     
   3      L13:  -0.0385 L23:  -0.0488                                     
   3    S TENSOR                                                          
   3      S11:   0.0027 S12:  -0.0220 S13:  -0.0155                       
   3      S21:  -0.0425 S22:   0.0424 S23:  -0.0242                       
   3      S31:   0.1039 S32:   0.2732 S33:  -0.0411                       
   3                                                                      
   3  NCS DETAILS                                                         
   3   NUMBER OF NCS GROUPS : NULL                                        
   3                                                                      
   3  OTHER REFINEMENT REMARKS: NULL                                      
   4                                                                      
   4 4E3O COMPLIES WITH FORMAT V. 3.30, 13-JUL-11                         
 100                                                                      
 100 THIS ENTRY HAS BEEN PROCESSED BY RCSB ON 16-MAR-12.                  
 100 THE RCSB ID CODE IS RCSB071128.                                      
 200                                                                      
 200 EXPERIMENTAL DETAILS                                                 
 200  EXPERIMENT TYPE                : X-RAY DIFFRACTION                  
 200  DATE OF DATA COLLECTION        : 25-AUG-10                          
 200  TEMPERATURE           (KELVIN) : 80                                 
 200  PH                             : 8.8                                
 200  NUMBER OF CRYSTALS USED        : 1                                  
 200                                                                      
 200  SYNCHROTRON              (Y/N) : Y                                  
 200  RADIATION SOURCE               : ALS                                
 200  BEAMLINE                       : 8.3.1                              
 200  X-RAY GENERATOR MODEL          : NULL                               
 200  MONOCHROMATIC OR LAUE    (M/L) : M                                  
 200  WAVELENGTH OR RANGE        (A) : 1.11587                            
 200  MONOCHROMATOR                  : NULL                               
 200  OPTICS                         : NULL                               
 200                                                                      
 200  DETECTOR TYPE                  : CCD                                
 200  DETECTOR MANUFACTURER          : ADSC QUANTUM 315R                  
 200  INTENSITY-INTEGRATION SOFTWARE : XDS                                
 200  DATA SCALING SOFTWARE          : XSCALE                             
 200                                                                      
 200  NUMBER OF UNIQUE REFLECTIONS   : 102681                             
 200  RESOLUTION RANGE HIGH      (A) : 1.600                              
 200  RESOLUTION RANGE LOW       (A) : 29.563                             
 200  REJECTION CRITERIA  (SIGMA(I)) : -3.000                             
 200                                                                      
 200 OVERALL.                                                             
 200  COMPLETENESS FOR RANGE     (%) : 99.2                               
 200  DATA REDUNDANCY                : NULL                               
 200  R MERGE                    (I) : 0.04000                            
 200  R SYM                      (I) : NULL                               
 200  <I/SIGMA(I)> FOR THE DATA SET  : 16.4100                            
 200                                                                      
 200 IN THE HIGHEST RESOLUTION SHELL.                                     
 200  HIGHEST RESOLUTION SHELL, RANGE HIGH (A) : 1.60                     
 200  HIGHEST RESOLUTION SHELL, RANGE LOW  (A) : 1.69                     
 200  COMPLETENESS FOR SHELL     (%) : 99.7                               
 200  DATA REDUNDANCY IN SHELL       : NULL                               
 200  R MERGE FOR SHELL          (I) : 0.50300                            
 200  R SYM FOR SHELL            (I) : NULL                               
 200  <I/SIGMA(I)> FOR SHELL         : 2.430                              
 200                                                                      
 200 DIFFRACTION PROTOCOL: SINGLE WAVELENGTH                              
 200 METHOD USED TO DETERMINE THE STRUCTURE: MOLECULAR REPLACEMENT        
 200 SOFTWARE USED: NULL                                                  
 200 STARTING MODEL: PDB ENTRY 1KE4                                       
 200                                                                      
 200 REMARK: NULL                                                         
 280                                                                      
 280 CRYSTAL                                                              
 280 SOLVENT CONTENT, VS   (%): 51.07                                     
 280 MATTHEWS COEFFICIENT, VM (ANGSTROMS**3/DA): 2.51                     
 280                                                                      
 280 CRYSTALLIZATION CONDITIONS: 1.7 M POTASSIUM PHOSPHATE, PH 8.8,       
 280  VAPOR DIFFUSION, HANGING DROP, TEMPERATURE 293K                     
 290                                                                      
 290 CRYSTALLOGRAPHIC SYMMETRY                                            
 290 SYMMETRY OPERATORS FOR SPACE GROUP: C 1 2 1                          
 290                                                                      
 290      SYMOP   SYMMETRY                                                
 290     NNNMMM   OPERATOR                                                
 290       1555   X,Y,Z                                                   
 290       2555   -X,Y,-Z                                                 
 290       3555   X+1/2,Y+1/2,Z                                           
 290       4555   -X+1/2,Y+1/2,-Z                                         
 290                                                                      
 290     WHERE NNN -> OPERATOR NUMBER                                     
 290           MMM -> TRANSLATION VECTOR                                  
 290                                                                      
 290 CRYSTALLOGRAPHIC SYMMETRY TRANSFORMATIONS                            
 290 THE FOLLOWING TRANSFORMATIONS OPERATE ON THE ATOM/HETATM             
 290 RECORDS IN THIS ENTRY TO PRODUCE CRYSTALLOGRAPHICALLY                
 290 RELATED MOLECULES.                                                   
 290   SMTRY1   1  1.000000  0.000000  0.000000        0.00000            
 290   SMTRY2   1  0.000000  1.000000  0.000000        0.00000            
 290   SMTRY3   1  0.000000  0.000000  1.000000        0.00000            
 290   SMTRY1   2 -1.000000  0.000000  0.000000        0.00000            
 290   SMTRY2   2  0.000000  1.000000  0.000000        0.00000            
 290   SMTRY3   2  0.000000  0.000000 -1.000000        0.00000            
 290   SMTRY1   3  1.000000  0.000000  0.000000       59.27000            
 290   SMTRY2   3  0.000000  1.000000  0.000000       38.37000            
 290   SMTRY3   3  0.000000  0.000000  1.000000        0.00000            
 290   SMTRY1   4 -1.000000  0.000000  0.000000       59.27000            
 290   SMTRY2   4  0.000000  1.000000  0.000000       38.37000            
 290   SMTRY3   4  0.000000  0.000000 -1.000000        0.00000            
 290                                                                      
 290 REMARK: NULL                                                         
 300                                                                      
 300 BIOMOLECULE: 1, 2                                                    
 300 SEE REMARK 350 FOR THE AUTHOR PROVIDED AND/OR PROGRAM                
 300 GENERATED ASSEMBLY INFORMATION FOR THE STRUCTURE IN                  
 300 THIS ENTRY. THE REMARK MAY ALSO PROVIDE INFORMATION ON               
 300 BURIED SURFACE AREA.                                                 
 350                                                                      
 350 COORDINATES FOR A COMPLETE MULTIMER REPRESENTING THE KNOWN           
 350 BIOLOGICALLY SIGNIFICANT OLIGOMERIZATION STATE OF THE                
 350 MOLECULE CAN BE GENERATED BY APPLYING BIOMT TRANSFORMATIONS          
 350 GIVEN BELOW.  BOTH NON-CRYSTALLOGRAPHIC AND                          
 350 CRYSTALLOGRAPHIC OPERATIONS ARE GIVEN.                               
 350                                                                      
 350 BIOMOLECULE: 1                                                       
 350 AUTHOR DETERMINED BIOLOGICAL UNIT: MONOMERIC                         
 350 APPLY THE FOLLOWING TO CHAINS: A                                     
 350   BIOMT1   1  1.000000  0.000000  0.000000        0.00000            
 350   BIOMT2   1  0.000000  1.000000  0.000000        0.00000            
 350   BIOMT3   1  0.000000  0.000000  1.000000        0.00000            
 350                                                                      
 350 BIOMOLECULE: 2                                                       
 350 AUTHOR DETERMINED BIOLOGICAL UNIT: MONOMERIC                         
 350 APPLY THE FOLLOWING TO CHAINS: B                                     
 350   BIOMT1   1  1.000000  0.000000  0.000000        0.00000            
 350   BIOMT2   1  0.000000  1.000000  0.000000        0.00000            
 350   BIOMT3   1  0.000000  0.000000  1.000000        0.00000            
 470                                                                      
 470 MISSING ATOM                                                         
 470 THE FOLLOWING RESIDUES HAVE MISSING ATOMS (M=MODEL NUMBER;           
 470 RES=RESIDUE NAME; C=CHAIN IDENTIFIER; SSEQ=SEQUENCE NUMBER;          
 470 I=INSERTION CODE):                                                   
 470   M RES CSSEQI  ATOMS                                                
 470     GLU A  21    CD   OE1  OE2                                       
 470     GLN A  22    CG   CD   OE1  NE2                                  
 470     LYS A  24    CG   CD   CE   NZ                                   
 470     LYS A  37    CG   CD   CE   NZ                                   
 470     LYS A  99    CG   CD   CE   NZ                                   
 470     GLU A 124    CG   CD   OE1  OE2                                  
 470     SER A 129    OG                                                  
 470     ARG A 204    NE   CZ   NH1  NH2                                  
 470     GLU A 205    CG   CD   OE1  OE2                                  
 470     LYS A 207    CG   CD   CE   NZ                                   
 470     LYS A 239    CE   NZ                                             
 470     LYS A 246    CG   CD   CE   NZ                                   
 470     LYS A 290    CG   CD   CE   NZ                                   
 470     ILE A 291    CG1  CG2  CD1                                       
 470     LYS A 299    CD   CE   NZ                                        
 470     GLN B   7    CD   OE1  NE2                                       
 470     LYS B  37    CG   CD   CE   NZ                                   
 470     LYS B  50    CG   CD   CE   NZ                                   
 470     GLN B  52    CD   OE1  NE2                                       
 470     LYS B 126    CG   CD   CE   NZ                                   
 470     GLU B 205    CG   CD   OE1  OE2                                  
 470     LYS B 207    CG   CD   CE   NZ                                   
 470     ASN B 244    OD1  ND2                                            
 470     LYS B 246    CG   CD   CE   NZ                                   
 470     LYS B 299    CG   CD   CE   NZ                                   
 470     GLU B 333    CD   OE1  OE2                                       
 500                                                                      
 500 GEOMETRY AND STEREOCHEMISTRY                                         
 500 SUBTOPIC: TORSION ANGLES                                             
 500                                                                      
 500 TORSION ANGLES OUTSIDE THE EXPECTED RAMACHANDRAN REGIONS:            
 500 (M=MODEL NUMBER; RES=RESIDUE NAME; C=CHAIN IDENTIFIER;               
 500 SSEQ=SEQUENCE NUMBER; I=INSERTION CODE).                             
 500                                                                      
 500 STANDARD TABLE:                                                      
 500 FORMAT:(10X,I3,1X,A3,1X,A1,I4,A1,4X,F7.2,3X,F7.2)                    
 500                                                                      
 500 EXPECTED VALUES: GJ KLEYWEGT AND TA JONES (1996). PHI/PSI-           
 500 CHOLOGY: RAMACHANDRAN REVISITED. STRUCTURE 4, 1395 - 1400            
 500                                                                      
 500  M RES CSSEQI        PSI       PHI                                   
 500    VAL A 178      -59.68   -122.97                                   
 500    TYR A 221       18.07   -159.96                                   
 500    ASN A 341       42.87    -97.50                                   
 500    PRO B   5      150.42    -45.38                                   
 500    LYS B 126      -59.03   -130.02                                   
 500    VAL B 178      -58.94   -125.48                                   
 500    TYR B 221       20.95   -158.42                                   
 500    ASN B 341       42.77    -96.09                                   
 500                                                                      
 500 REMARK: NULL                                                         
 800                                                                      
 800 SITE                                                                 
 800 SITE_IDENTIFIER: AC1                                                 
 800 EVIDENCE_CODE: SOFTWARE                                              
 800 SITE_DESCRIPTION: BINDING SITE FOR RESIDUE 0NG A 401                 
 800                                                                      
 800 SITE_IDENTIFIER: AC2                                                 
 800 EVIDENCE_CODE: SOFTWARE                                              
 800 SITE_DESCRIPTION: BINDING SITE FOR RESIDUE PO4 A 402                 
 800                                                                      
 800 SITE_IDENTIFIER: AC3                                                 
 800 EVIDENCE_CODE: SOFTWARE                                              
 800 SITE_DESCRIPTION: BINDING SITE FOR RESIDUE PO4 A 403                 
 800                                                                      
 800 SITE_IDENTIFIER: AC4                                                 
 800 EVIDENCE_CODE: SOFTWARE                                              
 800 SITE_DESCRIPTION: BINDING SITE FOR RESIDUE 0NG B 401                 
 800                                                                      
 800 SITE_IDENTIFIER: AC5                                                 
 800 EVIDENCE_CODE: SOFTWARE                                              
 800 SITE_DESCRIPTION: BINDING SITE FOR RESIDUE PO4 B 402                 
 800                                                                      
 800 SITE_IDENTIFIER: AC6                                                 
 800 EVIDENCE_CODE: SOFTWARE                                              
 800 SITE_DESCRIPTION: BINDING SITE FOR RESIDUE PO4 B 403                 
 900                                                                      
 900 RELATED ENTRIES                                                      
 900 RELATED ID: 4E3I   RELATED DB: PDB                                   
 900 RELATED ID: 4E3J   RELATED DB: PDB                                   
 900 RELATED ID: 4E3K   RELATED DB: PDB                                   
 900 RELATED ID: 4E3L   RELATED DB: PDB                                   
 900 RELATED ID: 4E3M   RELATED DB: PDB                                   
 900 RELATED ID: 4E3N   RELATED DB: PDB                                   

>  <DBREF>
 4E3O A    4   361  UNP    P00811   AMPC_ECOLI      20    377             
 4E3O B    4   361  UNP    P00811   AMPC_ECOLI      20    377             

>  <SEQRES>
   1 A  358  ALA PRO GLN GLN ILE ASN ASP ILE VAL HIS ARG THR ILE          
   2 A  358  THR PRO LEU ILE GLU GLN GLN LYS ILE PRO GLY MET ALA          
   3 A  358  VAL ALA VAL ILE TYR GLN GLY LYS PRO TYR TYR PHE THR          
   4 A  358  TRP GLY TYR ALA ASP ILE ALA LYS LYS GLN PRO VAL THR          
   5 A  358  GLN GLN THR LEU PHE GLU LEU GLY SER VAL SER LYS THR          
   6 A  358  PHE THR GLY VAL LEU GLY GLY ASP ALA ILE ALA ARG GLY          
   7 A  358  GLU ILE LYS LEU SER ASP PRO THR THR LYS TYR TRP PRO          
   8 A  358  GLU LEU THR ALA LYS GLN TRP ASN GLY ILE THR LEU LEU          
   9 A  358  HIS LEU ALA THR TYR THR ALA GLY GLY LEU PRO LEU GLN          
  10 A  358  VAL PRO ASP GLU VAL LYS SER SER SER ASP LEU LEU ARG          
  11 A  358  PHE TYR GLN ASN TRP GLN PRO ALA TRP ALA PRO GLY THR          
  12 A  358  GLN ARG LEU TYR ALA ASN SER SER ILE GLY LEU PHE GLY          
  13 A  358  ALA LEU ALA VAL LYS PRO SER GLY LEU SER PHE GLU GLN          
  14 A  358  ALA MET GLN THR ARG VAL PHE GLN PRO LEU LYS LEU ASN          
  15 A  358  HIS THR TRP ILE ASN VAL PRO PRO ALA GLU GLU LYS ASN          
  16 A  358  TYR ALA TRP GLY TYR ARG GLU GLY LYS ALA VAL HIS VAL          
  17 A  358  SER PRO GLY ALA LEU ASP ALA GLU ALA TYR GLY VAL LYS          
  18 A  358  SER THR ILE GLU ASP MET ALA ARG TRP VAL GLN SER ASN          
  19 A  358  LEU LYS PRO LEU ASP ILE ASN GLU LYS THR LEU GLN GLN          
  20 A  358  GLY ILE GLN LEU ALA GLN SER ARG TYR TRP GLN THR GLY          
  21 A  358  ASP MET TYR GLN GLY LEU GLY TRP GLU MET LEU ASP TRP          
  22 A  358  PRO VAL ASN PRO ASP SER ILE ILE ASN GLY SER ASP ASN          
  23 A  358  LYS ILE ALA LEU ALA ALA ARG PRO VAL LYS ALA ILE THR          
  24 A  358  PRO PRO THR PRO ALA VAL ARG ALA SER TRP VAL HIS LYS          
  25 A  358  THR GLY ALA THR GLY GLY PHE GLY SER TYR VAL ALA PHE          
  26 A  358  ILE PRO GLU LYS GLU LEU GLY ILE VAL MET LEU ALA ASN          
  27 A  358  LYS ASN TYR PRO ASN PRO ALA ARG VAL ASP ALA ALA TRP          
  28 A  358  GLN ILE LEU ASN ALA LEU GLN                                  
   1 B  358  ALA PRO GLN GLN ILE ASN ASP ILE VAL HIS ARG THR ILE          
   2 B  358  THR PRO LEU ILE GLU GLN GLN LYS ILE PRO GLY MET ALA          
   3 B  358  VAL ALA VAL ILE TYR GLN GLY LYS PRO TYR TYR PHE THR          
   4 B  358  TRP GLY TYR ALA ASP ILE ALA LYS LYS GLN PRO VAL THR          
   5 B  358  GLN GLN THR LEU PHE GLU LEU GLY SER VAL SER LYS THR          
   6 B  358  PHE THR GLY VAL LEU GLY GLY ASP ALA ILE ALA ARG GLY          
   7 B  358  GLU ILE LYS LEU SER ASP PRO THR THR LYS TYR TRP PRO          
   8 B  358  GLU LEU THR ALA LYS GLN TRP ASN GLY ILE THR LEU LEU          
   9 B  358  HIS LEU ALA THR TYR THR ALA GLY GLY LEU PRO LEU GLN          
  10 B  358  VAL PRO ASP GLU VAL LYS SER SER SER ASP LEU LEU ARG          
  11 B  358  PHE TYR GLN ASN TRP GLN PRO ALA TRP ALA PRO GLY THR          
  12 B  358  GLN ARG LEU TYR ALA ASN SER SER ILE GLY LEU PHE GLY          
  13 B  358  ALA LEU ALA VAL LYS PRO SER GLY LEU SER PHE GLU GLN          
  14 B  358  ALA MET GLN THR ARG VAL PHE GLN PRO LEU LYS LEU ASN          
  15 B  358  HIS THR TRP ILE ASN VAL PRO PRO ALA GLU GLU LYS ASN          
  16 B  358  TYR ALA TRP GLY TYR ARG GLU GLY LYS ALA VAL HIS VAL          
  17 B  358  SER PRO GLY ALA LEU ASP ALA GLU ALA TYR GLY VAL LYS          
  18 B  358  SER THR ILE GLU ASP MET ALA ARG TRP VAL GLN SER ASN          
  19 B  358  LEU LYS PRO LEU ASP ILE ASN GLU LYS THR LEU GLN GLN          
  20 B  358  GLY ILE GLN LEU ALA GLN SER ARG TYR TRP GLN THR GLY          
  21 B  358  ASP MET TYR GLN GLY LEU GLY TRP GLU MET LEU ASP TRP          
  22 B  358  PRO VAL ASN PRO ASP SER ILE ILE ASN GLY SER ASP ASN          
  23 B  358  LYS ILE ALA LEU ALA ALA ARG PRO VAL LYS ALA ILE THR          
  24 B  358  PRO PRO THR PRO ALA VAL ARG ALA SER TRP VAL HIS LYS          
  25 B  358  THR GLY ALA THR GLY GLY PHE GLY SER TYR VAL ALA PHE          
  26 B  358  ILE PRO GLU LYS GLU LEU GLY ILE VAL MET LEU ALA ASN          
  27 B  358  LYS ASN TYR PRO ASN PRO ALA ARG VAL ASP ALA ALA TRP          
  28 B  358  GLN ILE LEU ASN ALA LEU GLN                                  

>  <HET>
 0NG  A 401      10                                                       
 PO4  A 402       5                                                       
 PO4  A 403       5                                                       
 0NG  B 401      10                                                       
 PO4  B 402       5                                                       
 PO4  B 403       5                                                       

>  <HETNAM>
     0NG ({[(CHLOROMETHYL)SULFONYL]AMINO}METHYL)BORONIC ACID              
     PO4 PHOSPHATE ION                                                    

>  <FORMUL>
   3  0NG    2(C2 H7 B CL N O4 S)                                         
   4  PO4    4(O4 P 3-)                                                   
   9  HOH   *691(H2 O)                                                    

>  <HELIX>
   1   1 PRO A    5  LYS A   24  1                                  20    
   2   2 VAL A   65  ARG A   80  1                                  16    
   3   3 PRO A   88  TRP A   93  1                                   6    
   4   4 ALA A   98  ASN A  102  5                                   5    
   5   5 THR A  105  THR A  111  1                                   7    
   6   6 SER A  127  TRP A  138  1                                  12    
   7   7 ALA A  151  VAL A  163  1                                  13    
   8   8 SER A  169  VAL A  178  1                                  10    
   9   9 PRO A  192  TYR A  199  5                                   8    
  10  10 LEU A  216  GLY A  222  1                                   7    
  11  11 THR A  226  LYS A  239  1                                  14    
  12  12 PRO A  240  ILE A  243  5                                   4    
  13  13 GLU A  245  GLN A  256  1                                  12    
  14  14 ASN A  279  SER A  287  1                                   9    
  15  15 ASP A  288  LEU A  293  1                                   6    
  16  16 PRO A  330  GLU A  333  5                                   4    
  17  17 PRO A  345  GLN A  361  1                                  17    
  18  18 PRO B    5  LYS B   24  1                                  20    
  19  19 VAL B   65  ARG B   80  1                                  16    
  20  20 PRO B   88  TRP B   93  1                                   6    
  21  21 ALA B   98  ASN B  102  5                                   5    
  22  22 THR B  105  THR B  111  1                                   7    
  23  23 SER B  127  TRP B  138  1                                  12    
  24  24 ALA B  151  VAL B  163  1                                  13    
  25  25 SER B  169  VAL B  178  1                                  10    
  26  26 PRO B  192  TYR B  199  5                                   8    
  27  27 LEU B  216  GLY B  222  1                                   7    
  28  28 THR B  226  LYS B  239  1                                  14    
  29  29 PRO B  240  ILE B  243  5                                   4    
  30  30 GLU B  245  GLN B  256  1                                  12    
  31  31 ASN B  279  SER B  287  1                                   9    
  32  32 ASP B  288  LEU B  293  1                                   6    
  33  33 PRO B  330  GLU B  333  5                                   4    
  34  34 PRO B  345  GLN B  361  1                                  17    

>  <SHEET>
   1   A10 GLN A  52  PRO A  53  0                                        
   2   A10 LYS A  37  ASP A  47 -1  N  ALA A  46   O  GLN A  52           
   3   A10 GLY A  27  TYR A  34 -1  N  VAL A  30   O  PHE A  41           
   4   A10 LEU A 334  ALA A 340 -1  O  LEU A 339   N  ALA A  29           
   5   A10 PHE A 322  ILE A 329 -1  N  ILE A 329   O  LEU A 334           
   6   A10 SER A 311  THR A 319 -1  N  GLY A 317   O  SER A 324           
   7   A10 GLU A 272  ASP A 275 -1  N  LEU A 274   O  TRP A 312           
   8   A10 MET A 265  GLN A 267 -1  N  TYR A 266   O  MET A 273           
   9   A10 ARG A 258  THR A 262 -1  N  THR A 262   O  MET A 265           
  10   A10 LYS A 299  THR A 305 -1  O  THR A 305   N  ARG A 258           
   1   B 3 PHE A  60  GLU A  61  0                                        
   2   B 3 LYS A 224  SER A 225 -1  O  SER A 225   N  PHE A  60           
   3   B 3 THR A 187  TRP A 188 -1  N  TRP A 188   O  LYS A 224           
   1   C 2 GLN A 147  ARG A 148  0                                        
   2   C 2 ARG A 296  PRO A 297 -1  O  ARG A 296   N  ARG A 148           
   1   D 2 GLY A 202  ARG A 204  0                                        
   2   D 2 LYS A 207  VAL A 209 -1  O  VAL A 209   N  GLY A 202           
   1   E10 GLN B  52  PRO B  53  0                                        
   2   E10 LYS B  37  ASP B  47 -1  N  ASP B  47   O  GLN B  52           
   3   E10 GLY B  27  TYR B  34 -1  N  TYR B  34   O  LYS B  37           
   4   E10 LEU B 334  ALA B 340 -1  O  GLY B 335   N  ILE B  33           
   5   E10 GLY B 323  ILE B 329 -1  N  ILE B 329   O  LEU B 334           
   6   E10 SER B 311  ALA B 318 -1  N  GLY B 317   O  SER B 324           
   7   E10 GLU B 272  ASP B 275 -1  N  GLU B 272   O  HIS B 314           
   8   E10 MET B 265  GLN B 267 -1  N  TYR B 266   O  MET B 273           
   9   E10 ARG B 258  THR B 262 -1  N  THR B 262   O  MET B 265           
  10   E10 LYS B 299  THR B 305 -1  O  THR B 305   N  ARG B 258           
   1   F 2 PHE B  60  GLU B  61  0                                        
   2   F 2 LYS B 224  SER B 225 -1  O  SER B 225   N  PHE B  60           
   1   G 2 GLN B 147  ARG B 148  0                                        
   2   G 2 ARG B 296  PRO B 297 -1  O  ARG B 296   N  ARG B 148           
   1   H 2 GLY B 202  ARG B 204  0                                        
   2   H 2 LYS B 207  VAL B 209 -1  O  VAL B 209   N  GLY B 202           

>  <LINK>
       OG  SER B  64                 B03 0NG B 401     1555   1555  1.45  
       OG  SER A  64                 B03 0NG A 401     1555   1555  1.43  

>  <CISPEP>
   1 TRP A  276    PRO A  277          0         3.09                     
   2 THR A  302    PRO A  303          0        -2.45                     
   3 TRP B  276    PRO B  277          0         2.85                     
   4 THR B  302    PRO B  303          0         0.12                     

>  <SITE>
   1 AC1  8 SER A  64  GLN A 120  TYR A 150  ASN A 152                    
   2 AC1  8 TYR A 221  GLY A 317  ALA A 318  HOH A 567                    
   1 AC2  6 THR A 262  GLY A 263  PRO A 297  HOH A 684                    
   2 AC2  6 LYS B  51  HOH B 814                                          
   1 AC3  7 HIS A  13  PHE A  41  THR A  42  HOH A 659                    
   2 AC3  7 HOH A 779  GLY B 116  HOH B 603                               
   1 AC4 10 SER B  64  GLN B 120  TYR B 150  ASN B 152                    
   2 AC4 10 TYR B 221  GLY B 317  ALA B 318  PO4 B 403                    
   3 AC4 10 HOH B 578  HOH B 819                                          
   1 AC5  6 ARG A 133  HIS A 186  HOH A 582  HOH A 704                    
   2 AC5  6 HOH A 736  LYS B 290                                          
   1 AC6  3 TYR B 150  LEU B 293  0NG B 401                               

>  <ORIGX1>
      1.000000  0.000000  0.000000        0.00000                         

>  <ORIGX2>
      0.000000  1.000000  0.000000        0.00000                         

>  <ORIGX3>
      0.000000  0.000000  1.000000        0.00000                         

>  <SCALE1>
      0.008436  0.000000  0.004224        0.00000                         

>  <SCALE2>
      0.000000  0.013031  0.000000        0.00000                         

>  <SCALE3>
      0.000000  0.000000  0.011426        0.00000                         

>  <ANISOU>
  476  N   SER A  64     1610   1247   1734   -207    -31   -266       N  
  477  CA  SER A  64     1680   1299   1764   -197    -29   -271       C  
  478  C   SER A  64     1663   1272   1663   -208    -22   -269       C  
  479  O   SER A  64     1739   1342   1711   -201    -26   -267       O  
  480  CB  SER A  64     1854   1491   1996   -191    -10   -302       C  
  481  OG  SER A  64     1903   1537   2123   -173    -25   -293       O  

>  <MASTER>
      401    0    6   34   33    0   12    6 6240    2   42   56          

$$$$
