start_structures/Ligand_Substrate/Ligand_Complex_Stripped/105_1JWZ.pdb
 OpenBabel08222315203D

 26 27  0  0  1  0  0  0  0  0999 V2000
   21.6620   -0.6520   33.5260 N   0  0  0  0  0  0  0  0  0  0  0  0
   20.5130   -0.8410   34.4270 C   0  0  2  0  0  0  0  0  0  0  0  0
   19.5630   -2.0180   34.1590 C   0  0  0  0  0  0  0  0  0  0  0  0
   18.6860   -2.3100   34.9860 O   0  0  0  0  0  0  0  0  0  0  0  0
   19.7110    0.4620   34.4980 C   0  0  0  0  0  0  0  0  0  0  0  0
   20.4380    1.4000   35.2760 O   0  0  0  0  0  0  0  0  0  0  0  0
   20.7570    2.6060   34.5030 B   0  0  0  0  0  0  0  0  0  0  0  0
   21.7010    2.2710   33.4140 O   0  0  0  0  0  0  0  0  0  0  0  0
   19.5260    3.1590   33.9220 O   0  0  0  0  0  0  0  0  0  0  0  0
   21.3990    3.6450   35.4930 C   0  0  0  0  0  0  0  0  0  0  0  0
   22.3480    4.5710   34.8700 N   0  0  0  0  0  0  0  0  0  0  0  0
   21.9630    5.5170   34.0150 C   0  0  0  0  0  0  0  0  0  0  0  0
   20.7720    5.6200   33.6920 O   0  0  0  0  0  0  0  0  0  0  0  0
   23.0040    6.4930   33.4230 C   0  0  0  0  0  0  0  0  0  0  0  0
   23.8600    8.3970   32.5630 N   0  0  0  0  0  0  0  0  0  0  0  0
   24.9450    7.3450   32.6150 O   0  0  0  0  0  0  0  0  0  0  0  0
   24.2700    6.2920   33.1510 C   0  0  0  0  0  0  0  0  0  0  0  0
   22.7730    7.8450   33.0520 C   0  0  0  0  0  0  0  0  0  0  0  0
   24.9690    4.9940   33.4170 C   0  0  0  0  0  0  0  0  0  0  0  0
   21.4670    8.5770   33.1910 C   0  0  0  0  0  0  0  0  0  0  0  0
   20.7590    9.0290   32.0300 C   0  0  0  0  0  0  0  0  0  0  0  0
   21.4120    8.7630   30.4460 Cl  0  0  0  0  0  0  0  0  0  0  0  0
   19.5170    9.7060   32.1680 C   0  0  0  0  0  0  0  0  0  0  0  0
   18.9730    9.9410   33.4590 C   0  0  0  0  0  0  0  0  0  0  0  0
   19.6660    9.5030   34.6190 C   0  0  0  0  0  0  0  0  0  0  0  0
   20.9070    8.8230   34.4880 C   0  0  0  0  0  0  0  0  0  0  0  0
  2  1  1  6  0  0  0
  2  5  1  0  0  0  0
  3  2  1  0  0  0  0
  3  4  2  0  0  0  0
  5  6  1  0  0  0  0
  6  7  1  0  0  0  0
  7  8  1  0  0  0  0
  7  9  1  0  0  0  0
  7 10  1  0  0  0  0
 10 11  1  0  0  0  0
 11 12  1  0  0  0  0
 12 13  2  0  0  0  0
 12 14  1  0  0  0  0
 14 17  2  0  0  0  0
 14 18  1  0  0  0  0
 15 16  1  0  0  0  0
 15 18  2  0  0  0  0
 16 17  1  0  0  0  0
 17 19  1  0  0  0  0
 18 20  1  0  0  0  0
 20 21  2  0  0  0  0
 20 26  1  0  0  0  0
 21 22  1  0  0  0  0
 21 23  1  0  0  0  0
 23 24  2  0  0  0  0
 24 25  1  0  0  0  0
 25 26  2  0  0  0  0
M  END
>  <HEADER>
    HYDROLASE                               05-SEP-01   1JWZ              

>  <TITLE>
    CRYSTAL STRUCTURE OF TEM-64 BETA-LACTAMASE IN COMPLEX WITH A BORONIC  
   2 ACID INHIBITOR (105)                                                 

>  <COMPND>
    MOL_ID: 1;                                                            
   2 MOLECULE: BETA-LACTAMASE TEM;                                        
   3 CHAIN: A;                                                            
   4 FRAGMENT: TEM-64;                                                    
   5 EC: 3.5.2.6;                                                         
   6 ENGINEERED: YES;                                                     
   7 MUTATION: YES                                                        

>  <SOURCE>
    MOL_ID: 1;                                                            
   2 ORGANISM_SCIENTIFIC: ESCHERICHIA COLI;                               
   3 ORGANISM_TAXID: 562;                                                 
   4 GENE: BLA;                                                           
   5 EXPRESSION_SYSTEM: ESCHERICHIA COLI;                                 
   6 EXPRESSION_SYSTEM_TAXID: 562;                                        
   7 EXPRESSION_SYSTEM_STRAIN: SF120;                                     
   8 EXPRESSION_SYSTEM_VECTOR_TYPE: PLASMID;                              
   9 EXPRESSION_SYSTEM_PLASMID: PAITER EX II                              

>  <KEYWDS>
    TEM-64, BETA-LACTAMASE, SERINE HYDROLASE, EVOLUTION, ANTIBIOTIC       
   2 RESISTANCE, HYDROLASE                                                

>  <EXPDTA>
    X-RAY DIFFRACTION                                                     

>  <AUTHOR>
    X.WANG,G.MINASOV,B.K.SHOICHET                                         

>  <REVDAT>
   4   16-AUG-23 1JWZ    1       REMARK                                   
   3   27-OCT-21 1JWZ    1       REMARK SEQADV LINK                       
   2   24-FEB-09 1JWZ    1       VERSN                                    
   1   05-JUN-02 1JWZ    0                                                

>  <JRNL>
      AUTH   X.WANG,G.MINASOV,B.K.SHOICHET                                
      TITL   EVOLUTION OF AN ANTIBIOTIC RESISTANCE ENZYME CONSTRAINED BY  
      TITL 2 STABILITY AND ACTIVITY TRADE-OFFS.                           
      REF    J.MOL.BIOL.                   V. 320    85 2002              
      REFN                   ISSN 0022-2836                               
      PMID   12079336                                                     
      DOI    10.1016/S0022-2836(02)00400-X                                

>  <REMARK>
   2                                                                      
   2 RESOLUTION.    1.80 ANGSTROMS.                                       
   3                                                                      
   3 REFINEMENT.                                                          
   3   PROGRAM     : CNS 1.0                                              
   3   AUTHORS     : BRUNGER,ADAMS,CLORE,DELANO,GROS,GROSSE-              
   3               : KUNSTLEVE,JIANG,KUSZEWSKI,NILGES,PANNU,              
   3               : READ,RICE,SIMONSON,WARREN                            
   3                                                                      
   3  REFINEMENT TARGET : ENGH & HUBER                                    
   3                                                                      
   3  DATA USED IN REFINEMENT.                                            
   3   RESOLUTION RANGE HIGH (ANGSTROMS) : 1.80                           
   3   RESOLUTION RANGE LOW  (ANGSTROMS) : 19.00                          
   3   DATA CUTOFF            (SIGMA(F)) : 0.000                          
   3   DATA CUTOFF HIGH         (ABS(F)) : NULL                           
   3   DATA CUTOFF LOW          (ABS(F)) : NULL                           
   3   COMPLETENESS (WORKING+TEST)   (%) : 96.6                           
   3   NUMBER OF REFLECTIONS             : 24312                          
   3                                                                      
   3  FIT TO DATA USED IN REFINEMENT.                                     
   3   CROSS-VALIDATION METHOD          : THROUGHOUT                      
   3   FREE R VALUE TEST SET SELECTION  : RANDOM                          
   3   R VALUE            (WORKING SET) : 0.168                           
   3   FREE R VALUE                     : 0.189                           
   3   FREE R VALUE TEST SET SIZE   (%) : 10.000                          
   3   FREE R VALUE TEST SET COUNT      : 2028                            
   3   ESTIMATED ERROR OF FREE R VALUE  : NULL                            
   3                                                                      
   3  FIT IN THE HIGHEST RESOLUTION BIN.                                  
   3   TOTAL NUMBER OF BINS USED           : 10                           
   3   BIN RESOLUTION RANGE HIGH       (A) : 1.80                         
   3   BIN RESOLUTION RANGE LOW        (A) : 1.86                         
   3   BIN COMPLETENESS (WORKING+TEST) (%) : 85.50                        
   3   REFLECTIONS IN BIN    (WORKING SET) : 1986                         
   3   BIN R VALUE           (WORKING SET) : 0.2370                       
   3   BIN FREE R VALUE                    : 0.2750                       
   3   BIN FREE R VALUE TEST SET SIZE  (%) : 10.00                        
   3   BIN FREE R VALUE TEST SET COUNT     : 103                          
   3   ESTIMATED ERROR OF BIN FREE R VALUE : NULL                         
   3                                                                      
   3  NUMBER OF NON-HYDROGEN ATOMS USED IN REFINEMENT.                    
   3   PROTEIN ATOMS            : 2021                                    
   3   NUCLEIC ACID ATOMS       : 0                                       
   3   HETEROGEN ATOMS          : 20                                      
   3   SOLVENT ATOMS            : 331                                     
   3                                                                      
   3  B VALUES.                                                           
   3   FROM WILSON PLOT           (A**2) : 26.10                          
   3   MEAN B VALUE      (OVERALL, A**2) : 19.10                          
   3   OVERALL ANISOTROPIC B VALUE.                                       
   3    B11 (A**2) : -5.41400                                             
   3    B22 (A**2) : 1.81000                                              
   3    B33 (A**2) : 3.60400                                              
   3    B12 (A**2) : 0.00000                                              
   3    B13 (A**2) : 0.00000                                              
   3    B23 (A**2) : 0.00000                                              
   3                                                                      
   3  ESTIMATED COORDINATE ERROR.                                         
   3   ESD FROM LUZZATI PLOT        (A) : 0.17                            
   3   ESD FROM SIGMAA              (A) : 0.11                            
   3   LOW RESOLUTION CUTOFF        (A) : 5.00                            
   3                                                                      
   3  CROSS-VALIDATED ESTIMATED COORDINATE ERROR.                         
   3   ESD FROM C-V LUZZATI PLOT    (A) : 0.20                            
   3   ESD FROM C-V SIGMAA          (A) : 0.13                            
   3                                                                      
   3  RMS DEVIATIONS FROM IDEAL VALUES.                                   
   3   BOND LENGTHS                 (A) : 0.009                           
   3   BOND ANGLES            (DEGREES) : 1.550                           
   3   DIHEDRAL ANGLES        (DEGREES) : 21.74                           
   3   IMPROPER ANGLES        (DEGREES) : 0.950                           
   3                                                                      
   3  ISOTROPIC THERMAL MODEL : ISOTROPIC                                 
   3                                                                      
   3  ISOTROPIC THERMAL FACTOR RESTRAINTS.    RMS    SIGMA                
   3   MAIN-CHAIN BOND              (A**2) : NULL  ; NULL                 
   3   MAIN-CHAIN ANGLE             (A**2) : NULL  ; NULL                 
   3   SIDE-CHAIN BOND              (A**2) : NULL  ; NULL                 
   3   SIDE-CHAIN ANGLE             (A**2) : NULL  ; NULL                 
   3                                                                      
   3  BULK SOLVENT MODELING.                                              
   3   METHOD USED : NULL                                                 
   3   KSOL        : NULL                                                 
   3   BSOL        : NULL                                                 
   3                                                                      
   3  NCS MODEL : NULL                                                    
   3                                                                      
   3  NCS RESTRAINTS.                         RMS   SIGMA/WEIGHT          
   3   GROUP  1  POSITIONAL            (A) : NULL  ; NULL                 
   3   GROUP  1  B-FACTOR           (A**2) : NULL  ; NULL                 
   3                                                                      
   3  PARAMETER FILE  1  : NULL                                           
   3  TOPOLOGY FILE  1   : NULL                                           
   3                                                                      
   3  OTHER REFINEMENT REMARKS: CRYSTALLOGRAPHIC CONJUGATE GRADIENT       
   3  MINIMIZATION REFINEMENT USING MAXIMUM LIKELIHOOD TARGET FOR         
   3  AMPLITUDES                                                          
   4                                                                      
   4 1JWZ COMPLIES WITH FORMAT V. 3.30, 13-JUL-11                         
 100                                                                      
 100 THIS ENTRY HAS BEEN PROCESSED BY RCSB ON 10-SEP-01.                  
 100 THE DEPOSITION ID IS D_1000014282.                                   
 200                                                                      
 200 EXPERIMENTAL DETAILS                                                 
 200  EXPERIMENT TYPE                : X-RAY DIFFRACTION                  
 200  DATE OF DATA COLLECTION        : 05-JUL-01                          
 200  TEMPERATURE           (KELVIN) : 100.0                              
 200  PH                             : 8.0                                
 200  NUMBER OF CRYSTALS USED        : 1                                  
 200                                                                      
 200  SYNCHROTRON              (Y/N) : Y                                  
 200  RADIATION SOURCE               : APS                                
 200  BEAMLINE                       : 5ID-B                              
 200  X-RAY GENERATOR MODEL          : NULL                               
 200  MONOCHROMATIC OR LAUE    (M/L) : M                                  
 200  WAVELENGTH OR RANGE        (A) : 1.00000                            
 200  MONOCHROMATOR                  : GRAPHITE                           
 200  OPTICS                         : MIRRORS                            
 200                                                                      
 200  DETECTOR TYPE                  : CCD                                
 200  DETECTOR MANUFACTURER          : MARRESEARCH                        
 200  INTENSITY-INTEGRATION SOFTWARE : DENZO                              
 200  DATA SCALING SOFTWARE          : SCALEPACK                          
 200                                                                      
 200  NUMBER OF UNIQUE REFLECTIONS   : 25031                              
 200  RESOLUTION RANGE HIGH      (A) : 1.800                              
 200  RESOLUTION RANGE LOW       (A) : 20.000                             
 200  REJECTION CRITERIA  (SIGMA(I)) : -3.000                             
 200                                                                      
 200 OVERALL.                                                             
 200  COMPLETENESS FOR RANGE     (%) : 99.9                               
 200  DATA REDUNDANCY                : 4.800                              
 200  R MERGE                    (I) : 0.09700                            
 200  R SYM                      (I) : NULL                               
 200  <I/SIGMA(I)> FOR THE DATA SET  : 42.1600                            
 200                                                                      
 200 IN THE HIGHEST RESOLUTION SHELL.                                     
 200  HIGHEST RESOLUTION SHELL, RANGE HIGH (A) : 1.80                     
 200  HIGHEST RESOLUTION SHELL, RANGE LOW  (A) : 1.86                     
 200  COMPLETENESS FOR SHELL     (%) : 99.9                               
 200  DATA REDUNDANCY IN SHELL       : 4.60                               
 200  R MERGE FOR SHELL          (I) : 0.28000                            
 200  R SYM FOR SHELL            (I) : NULL                               
 200  <I/SIGMA(I)> FOR SHELL         : 4.900                              
 200                                                                      
 200 DIFFRACTION PROTOCOL: SINGLE WAVELENGTH                              
 200 METHOD USED TO DETERMINE THE STRUCTURE: MOLECULAR REPLACEMENT        
 200 SOFTWARE USED: AMORE                                                 
 200 STARTING MODEL: 1BTL                                                 
 200                                                                      
 200 REMARK: NULL                                                         
 280                                                                      
 280 CRYSTAL                                                              
 280 SOLVENT CONTENT, VS   (%): 36.32                                     
 280 MATTHEWS COEFFICIENT, VM (ANGSTROMS**3/DA): 1.95                     
 280                                                                      
 280 CRYSTALLIZATION CONDITIONS: SODIUM-POTASSIUM PHOSPHATE BUFFER, PH    
 280  8.0, VAPOR DIFFUSION, HANGING DROP, TEMPERATURE 295.0K              
 290                                                                      
 290 CRYSTALLOGRAPHIC SYMMETRY                                            
 290 SYMMETRY OPERATORS FOR SPACE GROUP: P 21 21 21                       
 290                                                                      
 290      SYMOP   SYMMETRY                                                
 290     NNNMMM   OPERATOR                                                
 290       1555   X,Y,Z                                                   
 290       2555   -X+1/2,-Y,Z+1/2                                         
 290       3555   -X,Y+1/2,-Z+1/2                                         
 290       4555   X+1/2,-Y+1/2,-Z                                         
 290                                                                      
 290     WHERE NNN -> OPERATOR NUMBER                                     
 290           MMM -> TRANSLATION VECTOR                                  
 290                                                                      
 290 CRYSTALLOGRAPHIC SYMMETRY TRANSFORMATIONS                            
 290 THE FOLLOWING TRANSFORMATIONS OPERATE ON THE ATOM/HETATM             
 290 RECORDS IN THIS ENTRY TO PRODUCE CRYSTALLOGRAPHICALLY                
 290 RELATED MOLECULES.                                                   
 290   SMTRY1   1  1.000000  0.000000  0.000000        0.00000            
 290   SMTRY2   1  0.000000  1.000000  0.000000        0.00000            
 290   SMTRY3   1  0.000000  0.000000  1.000000        0.00000            
 290   SMTRY1   2 -1.000000  0.000000  0.000000       36.00100            
 290   SMTRY2   2  0.000000 -1.000000  0.000000        0.00000            
 290   SMTRY3   2  0.000000  0.000000  1.000000       52.74450            
 290   SMTRY1   3 -1.000000  0.000000  0.000000        0.00000            
 290   SMTRY2   3  0.000000  1.000000  0.000000       17.27300            
 290   SMTRY3   3  0.000000  0.000000 -1.000000       52.74450            
 290   SMTRY1   4  1.000000  0.000000  0.000000       36.00100            
 290   SMTRY2   4  0.000000 -1.000000  0.000000       17.27300            
 290   SMTRY3   4  0.000000  0.000000 -1.000000        0.00000            
 290                                                                      
 290 REMARK: NULL                                                         
 300                                                                      
 300 BIOMOLECULE: 1                                                       
 300 SEE REMARK 350 FOR THE AUTHOR PROVIDED AND/OR PROGRAM                
 300 GENERATED ASSEMBLY INFORMATION FOR THE STRUCTURE IN                  
 300 THIS ENTRY. THE REMARK MAY ALSO PROVIDE INFORMATION ON               
 300 BURIED SURFACE AREA.                                                 
 350                                                                      
 350 COORDINATES FOR A COMPLETE MULTIMER REPRESENTING THE KNOWN           
 350 BIOLOGICALLY SIGNIFICANT OLIGOMERIZATION STATE OF THE                
 350 MOLECULE CAN BE GENERATED BY APPLYING BIOMT TRANSFORMATIONS          
 350 GIVEN BELOW.  BOTH NON-CRYSTALLOGRAPHIC AND                          
 350 CRYSTALLOGRAPHIC OPERATIONS ARE GIVEN.                               
 350                                                                      
 350 BIOMOLECULE: 1                                                       
 350 AUTHOR DETERMINED BIOLOGICAL UNIT: MONOMERIC                         
 350 APPLY THE FOLLOWING TO CHAINS: A                                     
 350   BIOMT1   1  1.000000  0.000000  0.000000        0.00000            
 350   BIOMT2   1  0.000000  1.000000  0.000000        0.00000            
 350   BIOMT3   1  0.000000  0.000000  1.000000        0.00000            
 500                                                                      
 500 GEOMETRY AND STEREOCHEMISTRY                                         
 500 SUBTOPIC: TORSION ANGLES                                             
 500                                                                      
 500 TORSION ANGLES OUTSIDE THE EXPECTED RAMACHANDRAN REGIONS:            
 500 (M=MODEL NUMBER; RES=RESIDUE NAME; C=CHAIN IDENTIFIER;               
 500 SSEQ=SEQUENCE NUMBER; I=INSERTION CODE).                             
 500                                                                      
 500 STANDARD TABLE:                                                      
 500 FORMAT:(10X,I3,1X,A3,1X,A1,I4,A1,4X,F7.2,3X,F7.2)                    
 500                                                                      
 500 EXPECTED VALUES: GJ KLEYWEGT AND TA JONES (1996). PHI/PSI-           
 500 CHOLOGY: RAMACHANDRAN REVISITED. STRUCTURE 4, 1395 - 1400            
 500                                                                      
 500  M RES CSSEQI        PSI       PHI                                   
 500    MET A  69     -144.09     52.14                                   
 500    MET A  69     -151.43     55.68                                   
 500    SER A  70       -9.01    -59.65                                   
 500    PRO A 167       45.49   -100.29                                   
 500    LEU A 220     -124.62    -99.64                                   
 500    SER A 258       -2.69   -140.22                                   
 500                                                                      
 500 REMARK: NULL                                                         
 800                                                                      
 800 SITE                                                                 
 800 SITE_IDENTIFIER: AC1                                                 
 800 EVIDENCE_CODE: SOFTWARE                                              
 800 SITE_DESCRIPTION: BINDING SITE FOR RESIDUE 105 A 300                 

>  <DBREF>
 1JWZ A   26   290  UNP    P62593   BLAT_ECOLI      24    286             

>  <SEQADV>
 1JWZ LYS A  104  UNP  P62593    GLU   102 ENGINEERED MUTATION            
 1JWZ SER A  164  UNP  P62593    ARG   162 ENGINEERED MUTATION            
 1JWZ THR A  182  UNP  P62593    MET   180 ENGINEERED MUTATION            

>  <SEQRES>
   1 A  263  HIS PRO GLU THR LEU VAL LYS VAL LYS ASP ALA GLU ASP          
   2 A  263  GLN LEU GLY ALA ARG VAL GLY TYR ILE GLU LEU ASP LEU          
   3 A  263  ASN SER GLY LYS ILE LEU GLU SER PHE ARG PRO GLU GLU          
   4 A  263  ARG PHE PRO MET MET SER THR PHE LYS VAL LEU LEU CYS          
   5 A  263  GLY ALA VAL LEU SER ARG VAL ASP ALA GLY GLN GLU GLN          
   6 A  263  LEU GLY ARG ARG ILE HIS TYR SER GLN ASN ASP LEU VAL          
   7 A  263  LYS TYR SER PRO VAL THR GLU LYS HIS LEU THR ASP GLY          
   8 A  263  MET THR VAL ARG GLU LEU CYS SER ALA ALA ILE THR MET          
   9 A  263  SER ASP ASN THR ALA ALA ASN LEU LEU LEU THR THR ILE          
  10 A  263  GLY GLY PRO LYS GLU LEU THR ALA PHE LEU HIS ASN MET          
  11 A  263  GLY ASP HIS VAL THR ARG LEU ASP SER TRP GLU PRO GLU          
  12 A  263  LEU ASN GLU ALA ILE PRO ASN ASP GLU ARG ASP THR THR          
  13 A  263  THR PRO ALA ALA MET ALA THR THR LEU ARG LYS LEU LEU          
  14 A  263  THR GLY GLU LEU LEU THR LEU ALA SER ARG GLN GLN LEU          
  15 A  263  ILE ASP TRP MET GLU ALA ASP LYS VAL ALA GLY PRO LEU          
  16 A  263  LEU ARG SER ALA LEU PRO ALA GLY TRP PHE ILE ALA ASP          
  17 A  263  LYS SER GLY ALA GLY GLU ARG GLY SER ARG GLY ILE ILE          
  18 A  263  ALA ALA LEU GLY PRO ASP GLY LYS PRO SER ARG ILE VAL          
  19 A  263  VAL ILE TYR THR THR GLY SER GLN ALA THR MET ASP GLU          
  20 A  263  ARG ASN ARG GLN ILE ALA GLU ILE GLY ALA SER LEU ILE          
  21 A  263  LYS HIS TRP                                                  

>  <HET>
 105  A 300      20                                                       

>  <HETNAM>
     105 N-[5-METHYL-3-O-TOLYL-ISOXAZOLE-4-CARBOXYLIC ACID                
   2 105  AMIDE] BORONIC ACID                                             

>  <HETSYN>
     105 CLOXACILLIN DERIVATIVE                                           

>  <FORMUL>
   2  105    C12 H12 B CL N2 O4                                           
   3  HOH   *331(H2 O)                                                    

>  <HELIX>
   1   1 HIS A   26  GLY A   41  1                                  16    
   2   2 THR A   71  ALA A   86  1                                  16    
   3   3 SER A   98  LEU A  102  5                                   5    
   4   4 VAL A  108  HIS A  112  5                                   5    
   5   5 VAL A  119  MET A  129  1                                  11    
   6   6 ASP A  131  GLY A  143  1                                  13    
   7   7 GLY A  144  ASN A  154  1                                  11    
   8   8 THR A  182  THR A  195  1                                  14    
   9   9 THR A  200  ALA A  213  1                                  14    
  10  10 LEU A  220  LEU A  225  1                                   6    
  11  11 THR A  271  HIS A  289  1                                  19    

>  <SHEET>
   1   A 5 ILE A  56  PHE A  60  0                                        
   2   A 5 VAL A  44  ASP A  50 -1  N  GLU A  48   O  LEU A  57           
   3   A 5 ARG A 259  THR A 265 -1  O  TYR A 264   N  GLY A  45           
   4   A 5 ARG A 244  GLY A 251 -1  N  ILE A 246   O  ILE A 263           
   5   A 5 PHE A 230  ALA A 237 -1  N  PHE A 230   O  GLY A 251           
   1   B 2 PHE A  66  PRO A  67  0                                        
   2   B 2 THR A 180  THR A 181 -1  O  THR A 181   N  PHE A  66           
   1   C 2 ARG A  94  ILE A  95  0                                        
   2   C 2 MET A 117  THR A 118 -1  O  MET A 117   N  ILE A  95           

>  <SSBOND>
   1 CYS A   77    CYS A  123                          1555   1555  2.06  

>  <LINK>
       OG  SER A  70                 B   105 A 300     1555   1555  1.47  

>  <CISPEP>
   1 GLU A  166    PRO A  167          0        -0.03                     
   2 ILE A  173    PRO A  174          0         0.01                     

>  <SITE>
   1 AC1 13 MET A  69  SER A  70  LYS A  73  TYR A 105                    
   2 AC1 13 SER A 130  MET A 155  ALA A 237  GLU A 240                    
   3 AC1 13 MET A 272  HOH A 310  HOH A 400  HOH A 571                    
   4 AC1 13 HOH A 588                                                     

>  <ORIGX1>
      1.000000  0.000000  0.000000        0.00000                         

>  <ORIGX2>
      0.000000  1.000000  0.000000        0.00000                         

>  <ORIGX3>
      0.000000  0.000000  1.000000        0.00000                         

>  <SCALE1>
      0.013889  0.000000  0.000000        0.00000                         

>  <SCALE2>
      0.000000  0.028947  0.000000        0.00000                         

>  <SCALE3>
      0.000000  0.000000  0.009480        0.00000                         

>  <MASTER>
      238    0    1   11    9    0    4    6 2372    1   23   21          

$$$$
