start_structures/Ligand_Substrate/Ligand_Complex_Stripped/17K_4GD6.pdb
 OpenBabel08222315203D

 38 40  0  0  1  0  0  0  0  0999 V2000
   33.6190   60.4050    8.5570 N   0  0  0  0  0  0  0  0  0  0  0  0
   33.1570   59.2710    7.7740 C   0  0  2  0  0  0  0  0  0  0  0  0
   33.5340   57.9310    8.3710 C   0  0  0  0  0  0  0  0  0  0  0  0
   33.0160   56.8940    7.9470 O   0  0  0  0  0  0  0  0  0  0  0  0
   33.7410   59.3510    6.3730 C   0  0  0  0  0  0  0  0  0  0  0  0
   33.7050   60.6930    5.9510 O   0  0  0  0  0  0  0  0  0  0  0  0
   42.8310   60.0590   -1.5950 C   0  0  0  0  0  0  0  0  0  0  0  0
   44.0230   60.1860   -2.3030 C   0  0  0  0  0  0  0  0  0  0  0  0
   45.0610   60.9590   -1.7740 C   0  0  0  0  0  0  0  0  0  0  0  0
   44.9260   61.6090   -0.5520 C   0  0  0  0  0  0  0  0  0  0  0  0
   43.7340   61.4900    0.1550 C   0  0  0  0  0  0  0  0  0  0  0  0
   42.7030   60.7130   -0.3690 C   0  0  0  0  0  0  0  0  0  0  0  0
   41.4170   60.6000    0.4240 C   0  0  0  0  0  0  0  0  0  0  0  0
   40.3410   61.5020   -0.1890 C   0  0  0  0  0  0  0  0  0  0  0  0
   40.6030   62.5960   -0.6920 O   0  0  0  0  0  0  0  0  0  0  0  0
   39.0830   61.0250   -0.1420 O   0  0  0  0  0  0  0  0  0  0  0  0
   38.0020   61.8400   -0.5610 C   0  0  0  0  0  0  0  0  0  0  0  0
   36.7740   61.3020    0.1860 C   0  0  1  0  0  0  0  0  0  0  0  0
   35.3330   61.6210   -0.8840 S   0  0  0  0  0  0  0  0  0  0  0  0
   35.6760   60.9370   -2.1730 O   0  0  0  0  0  0  0  0  0  0  0  0
   35.2850   63.1100   -1.0910 O   0  0  0  0  0  0  0  0  0  0  0  0
   36.8640   59.7850    0.4670 C   0  0  0  0  0  0  0  0  0  0  0  0
   36.5630   62.1480    1.4550 C   0  0  2  0  0  0  0  0  0  0  0  0
   37.7550   62.1050    2.4430 C   0  0  0  0  0  0  0  0  0  0  0  0
   37.7740   61.1900    3.2950 O   0  0  0  0  0  0  0  0  0  0  0  0
   38.6190   63.0080    2.2890 O   0  0  0  0  0  0  0  0  0  0  0  0
   35.2630   61.8360    2.1030 N   0  0  0  0  0  0  0  0  0  0  0  0
   34.8120   62.6310    3.0800 C   0  0  0  0  0  0  0  0  0  0  0  0
   34.6950   64.0140    3.0380 N   0  0  0  0  0  0  0  0  0  0  0  0
   34.9570   64.9650    2.0320 C   0  0  0  0  0  0  0  0  0  0  0  0
   34.7130   66.3070    2.3080 C   0  0  0  0  0  0  0  0  0  0  0  0
   34.2220   66.7160    3.5470 C   0  0  0  0  0  0  0  0  0  0  0  0
   33.9530   65.7730    4.5430 C   0  0  0  0  0  0  0  0  0  0  0  0
   34.1770   64.4130    4.2940 C   0  0  0  0  0  0  0  0  0  0  0  0
   33.9950   63.3020    5.0490 C   0  0  0  0  0  0  0  0  0  0  0  0
   34.3720   62.2320    4.3260 C   0  0  0  0  0  0  0  0  0  0  0  0
   34.3310   60.7680    4.7470 C   0  0  0  0  0  0  0  0  0  0  0  0
   34.5110   59.8470    3.9510 O   0  0  0  0  0  0  0  0  0  0  0  0
  2  3  1  0  0  0  0
  2  1  1  1  0  0  0
  4  3  2  0  0  0  0
  5  2  1  0  0  0  0
  6 37  1  0  0  0  0
  6  5  1  0  0  0  0
  7  8  2  0  0  0  0
  7 12  1  0  0  0  0
  8  9  1  0  0  0  0
  9 10  2  0  0  0  0
 10 11  1  0  0  0  0
 11 12  2  0  0  0  0
 12 13  1  0  0  0  0
 13 14  1  0  0  0  0
 14 15  2  0  0  0  0
 14 16  1  0  0  0  0
 16 17  1  0  0  0  0
 17 18  1  0  0  0  0
 18 19  1  0  0  0  0
 18 22  1  1  0  0  0
 18 23  1  0  0  0  0
 19 20  1  0  0  0  0
 19 21  1  0  0  0  0
 23 24  1  1  0  0  0
 23 27  1  0  0  0  0
 24 25  2  0  0  0  0
 24 26  1  0  0  0  0
 27 28  1  0  0  0  0
 28 29  1  0  0  0  0
 28 36  2  0  0  0  0
 29 30  1  0  0  0  0
 29 34  1  0  0  0  0
 30 31  2  0  0  0  0
 31 32  1  0  0  0  0
 32 33  2  0  0  0  0
 33 34  1  0  0  0  0
 34 35  2  0  0  0  0
 35 36  1  0  0  0  0
 36 37  1  0  0  0  0
 37 38  2  0  0  0  0
M  END
>  <HEADER>
    HYDROLASE/HYDROLASE INHIBITOR           31-JUL-12   4GD6              

>  <TITLE>
    SHV-1 BETA-LACTAMASE IN COMPLEX WITH PENAM SULFONE SA1-204            

>  <COMPND>
    MOL_ID: 1;                                                            
   2 MOLECULE: BETA-LACTAMASE SHV-1;                                      
   3 CHAIN: A;                                                            
   4 SYNONYM: PIT-2;                                                      
   5 EC: 3.5.2.6;                                                         
   6 ENGINEERED: YES                                                      

>  <SOURCE>
    MOL_ID: 1;                                                            
   2 ORGANISM_SCIENTIFIC: KLEBSIELLA PNEUMONIAE;                          
   3 ORGANISM_TAXID: 573;                                                 
   4 GENE: BLA, SHV1;                                                     
   5 EXPRESSION_SYSTEM: ESCHERICHIA COLI;                                 
   6 EXPRESSION_SYSTEM_TAXID: 562                                         

>  <KEYWDS>
    CLASS A BETA-LACTAMASE, HYDROLASE, HYDROLASE-HYDROLASE INHIBITOR      
   2 COMPLEX                                                              

>  <EXPDTA>
    X-RAY DIFFRACTION                                                     

>  <AUTHOR>
    F.VAN DEN AKKER,K.WEI                                                 

>  <REVDAT>
   3   15-NOV-17 4GD6    1       REMARK                                   
   2   07-AUG-13 4GD6    1       JRNL                                     
   1   31-JUL-13 4GD6    0                                                

>  <JRNL>
      AUTH   W.KE,P.PATTANAIK,C.R.BETHEL,A.SHERI,J.D.BUYNAK,R.A.BONOMO,   
      AUTH 2 F.VAN DEN AKKER                                              
      TITL   STRUCTURES OF SHV-1 BETA-LACTAMASE WITH PENEM AND PENAM      
      TITL 2 SULFONE INHIBITORS THAT FORM CYCLIC INTERMEDIATES STABILIZED 
      TITL 3 BY CARBONYL CONJUGATION                                      
      REF    PLOS ONE                      V.   7 49035 2012              
      REFN                   ESSN 1932-6203                               
      PMID   23145056                                                     
      DOI    10.1371/JOURNAL.PONE.0049035                                 

>  <REMARK>
   2                                                                      
   2 RESOLUTION.    1.53 ANGSTROMS.                                       
   3                                                                      
   3 REFINEMENT.                                                          
   3   PROGRAM     : REFMAC 5.2.0019                                      
   3   AUTHORS     : MURSHUDOV,VAGIN,DODSON                               
   3                                                                      
   3    REFINEMENT TARGET : MAXIMUM LIKELIHOOD                            
   3                                                                      
   3  DATA USED IN REFINEMENT.                                            
   3   RESOLUTION RANGE HIGH (ANGSTROMS) : 1.53                           
   3   RESOLUTION RANGE LOW  (ANGSTROMS) : 27.68                          
   3   DATA CUTOFF            (SIGMA(F)) : NULL                           
   3   COMPLETENESS FOR RANGE        (%) : 98.3                           
   3   NUMBER OF REFLECTIONS             : 32972                          
   3                                                                      
   3  FIT TO DATA USED IN REFINEMENT.                                     
   3   CROSS-VALIDATION METHOD          : THROUGHOUT                      
   3   FREE R VALUE TEST SET SELECTION  : RANDOM                          
   3   R VALUE     (WORKING + TEST SET) : 0.169                           
   3   R VALUE            (WORKING SET) : 0.168                           
   3   FREE R VALUE                     : 0.194                           
   3   FREE R VALUE TEST SET SIZE   (%) : 5.000                           
   3   FREE R VALUE TEST SET COUNT      : 1742                            
   3                                                                      
   3  FIT IN THE HIGHEST RESOLUTION BIN.                                  
   3   TOTAL NUMBER OF BINS USED           : 20                           
   3   BIN RESOLUTION RANGE HIGH       (A) : 1.53                         
   3   BIN RESOLUTION RANGE LOW        (A) : 1.57                         
   3   REFLECTION IN BIN     (WORKING SET) : 2141                         
   3   BIN COMPLETENESS (WORKING+TEST) (%) : 87.75                        
   3   BIN R VALUE           (WORKING SET) : 0.2340                       
   3   BIN FREE R VALUE SET COUNT          : 116                          
   3   BIN FREE R VALUE                    : 0.3160                       
   3                                                                      
   3  NUMBER OF NON-HYDROGEN ATOMS USED IN REFINEMENT.                    
   3   PROTEIN ATOMS            : 2024                                    
   3   NUCLEIC ACID ATOMS       : 0                                       
   3   HETEROGEN ATOMS          : 76                                      
   3   SOLVENT ATOMS            : 261                                     
   3                                                                      
   3  B VALUES.                                                           
   3   FROM WILSON PLOT           (A**2) : NULL                           
   3   MEAN B VALUE      (OVERALL, A**2) : 17.98                          
   3   OVERALL ANISOTROPIC B VALUE.                                       
   3    B11 (A**2) : 0.01000                                              
   3    B22 (A**2) : 0.00000                                              
   3    B33 (A**2) : -0.01000                                             
   3    B12 (A**2) : 0.00000                                              
   3    B13 (A**2) : 0.00000                                              
   3    B23 (A**2) : 0.00000                                              
   3                                                                      
   3  ESTIMATED OVERALL COORDINATE ERROR.                                 
   3   ESU BASED ON R VALUE                            (A): 0.084         
   3   ESU BASED ON FREE R VALUE                       (A): 0.082         
   3   ESU BASED ON MAXIMUM LIKELIHOOD                 (A): 0.051         
   3   ESU FOR B VALUES BASED ON MAXIMUM LIKELIHOOD (A**2): 1.364         
   3                                                                      
   3 CORRELATION COEFFICIENTS.                                            
   3   CORRELATION COEFFICIENT FO-FC      : 0.967                         
   3   CORRELATION COEFFICIENT FO-FC FREE : 0.960                         
   3                                                                      
   3  RMS DEVIATIONS FROM IDEAL VALUES        COUNT    RMS    WEIGHT      
   3   BOND LENGTHS REFINED ATOMS        (A):  2162 ; 0.009 ; 0.022       
   3   BOND LENGTHS OTHERS               (A):  NULL ;  NULL ;  NULL       
   3   BOND ANGLES REFINED ATOMS   (DEGREES):  2934 ; 1.306 ; 2.008       
   3   BOND ANGLES OTHERS          (DEGREES):  NULL ;  NULL ;  NULL       
   3   TORSION ANGLES, PERIOD 1    (DEGREES):   272 ; 5.718 ; 5.000       
   3   TORSION ANGLES, PERIOD 2    (DEGREES):    92 ;36.820 ;23.370       
   3   TORSION ANGLES, PERIOD 3    (DEGREES):   367 ;12.919 ;15.000       
   3   TORSION ANGLES, PERIOD 4    (DEGREES):    23 ;17.597 ;15.000       
   3   CHIRAL-CENTER RESTRAINTS       (A**3):   340 ; 0.080 ; 0.200       
   3   GENERAL PLANES REFINED ATOMS      (A):  1597 ; 0.005 ; 0.020       
   3   GENERAL PLANES OTHERS             (A):  NULL ;  NULL ;  NULL       
   3   NON-BONDED CONTACTS REFINED ATOMS (A):  1053 ; 0.199 ; 0.200       
   3   NON-BONDED CONTACTS OTHERS        (A):  NULL ;  NULL ;  NULL       
   3   NON-BONDED TORSION REFINED ATOMS  (A):  1530 ; 0.306 ; 0.200       
   3   NON-BONDED TORSION OTHERS         (A):  NULL ;  NULL ;  NULL       
   3   H-BOND (X...Y) REFINED ATOMS      (A):   195 ; 0.110 ; 0.200       
   3   H-BOND (X...Y) OTHERS             (A):  NULL ;  NULL ;  NULL       
   3   POTENTIAL METAL-ION REFINED ATOMS (A):  NULL ;  NULL ;  NULL       
   3   POTENTIAL METAL-ION OTHERS        (A):  NULL ;  NULL ;  NULL       
   3   SYMMETRY VDW REFINED ATOMS        (A):    48 ; 0.183 ; 0.200       
   3   SYMMETRY VDW OTHERS               (A):  NULL ;  NULL ;  NULL       
   3   SYMMETRY H-BOND REFINED ATOMS     (A):    34 ; 0.110 ; 0.200       
   3   SYMMETRY H-BOND OTHERS            (A):  NULL ;  NULL ;  NULL       
   3   SYMMETRY METAL-ION REFINED ATOMS  (A):  NULL ;  NULL ;  NULL       
   3   SYMMETRY METAL-ION OTHERS         (A):  NULL ;  NULL ;  NULL       
   3                                                                      
   3  ISOTROPIC THERMAL FACTOR RESTRAINTS.     COUNT   RMS    WEIGHT      
   3   MAIN-CHAIN BOND REFINED ATOMS  (A**2):  1369 ; 0.658 ; 1.500       
   3   MAIN-CHAIN BOND OTHER ATOMS    (A**2):  NULL ;  NULL ;  NULL       
   3   MAIN-CHAIN ANGLE REFINED ATOMS (A**2):  2137 ; 1.046 ; 2.000       
   3   MAIN-CHAIN ANGLE OTHER ATOMS   (A**2):  NULL ;  NULL ;  NULL       
   3   SIDE-CHAIN BOND REFINED ATOMS  (A**2):   888 ; 1.853 ; 3.000       
   3   SIDE-CHAIN BOND OTHER ATOMS    (A**2):  NULL ;  NULL ;  NULL       
   3   SIDE-CHAIN ANGLE REFINED ATOMS (A**2):   793 ; 3.077 ; 4.500       
   3   SIDE-CHAIN ANGLE OTHER ATOMS   (A**2):  NULL ;  NULL ;  NULL       
   3   LONG RANGE B REFINED ATOMS     (A**2):  NULL ;  NULL ;  NULL       
   3   LONG RANGE B OTHER ATOMS       (A**2):  NULL ;  NULL ;  NULL       
   3                                                                      
   3 ANISOTROPIC THERMAL FACTOR RESTRAINTS.    COUNT   RMS   WEIGHT       
   3   RIGID-BOND RESTRAINTS          (A**2):  NULL ;  NULL ;  NULL       
   3   SPHERICITY; FREE ATOMS         (A**2):  NULL ;  NULL ;  NULL       
   3   SPHERICITY; BONDED ATOMS       (A**2):  NULL ;  NULL ;  NULL       
   3                                                                      
   3  NCS RESTRAINTS STATISTICS                                           
   3   NUMBER OF DIFFERENT NCS GROUPS : NULL                              
   3                                                                      
   3  TLS DETAILS                                                         
   3   NUMBER OF TLS GROUPS  : NULL                                       
   3                                                                      
   3  BULK SOLVENT MODELLING.                                             
   3   METHOD USED : MASK                                                 
   3   PARAMETERS FOR MASK CALCULATION                                    
   3   VDW PROBE RADIUS   : 1.40                                          
   3   ION PROBE RADIUS   : 0.80                                          
   3   SHRINKAGE RADIUS   : 0.80                                          
   3                                                                      
   3  OTHER REFINEMENT REMARKS: HYDROGENS HAVE BEEN ADDED IN THE RIDING   
   3  POSITIONS                                                           
   4                                                                      
   4 4GD6 COMPLIES WITH FORMAT V. 3.30, 13-JUL-11                         
 100                                                                      
 100 THIS ENTRY HAS BEEN PROCESSED BY RCSB ON 15-AUG-12.                  
 100 THE DEPOSITION ID IS D_1000074034.                                   
 200                                                                      
 200 EXPERIMENTAL DETAILS                                                 
 200  EXPERIMENT TYPE                : X-RAY DIFFRACTION                  
 200  DATE OF DATA COLLECTION        : 03-JUN-07                          
 200  TEMPERATURE           (KELVIN) : 100                                
 200  PH                             : 7.0                                
 200  NUMBER OF CRYSTALS USED        : 1                                  
 200                                                                      
 200  SYNCHROTRON              (Y/N) : Y                                  
 200  RADIATION SOURCE               : NSLS                               
 200  BEAMLINE                       : X29A                               
 200  X-RAY GENERATOR MODEL          : NULL                               
 200  MONOCHROMATIC OR LAUE    (M/L) : M                                  
 200  WAVELENGTH OR RANGE        (A) : 1.081                              
 200  MONOCHROMATOR                  : ROSENBAUM-ROCK DOUBLE CRYSTAL      
 200                                   SAGITTAL FOCUSING                  
 200  OPTICS                         : MIRRORS                            
 200                                                                      
 200  DETECTOR TYPE                  : CCD                                
 200  DETECTOR MANUFACTURER          : ADSC QUANTUM 315                   
 200  INTENSITY-INTEGRATION SOFTWARE : HKL-2000                           
 200  DATA SCALING SOFTWARE          : HKL-2000                           
 200                                                                      
 200  NUMBER OF UNIQUE REFLECTIONS   : 32972                              
 200  RESOLUTION RANGE HIGH      (A) : 1.530                              
 200  RESOLUTION RANGE LOW       (A) : 27.680                             
 200  REJECTION CRITERIA  (SIGMA(I)) : 0.000                              
 200                                                                      
 200 OVERALL.                                                             
 200  COMPLETENESS FOR RANGE     (%) : 97.8                               
 200  DATA REDUNDANCY                : 6.300                              
 200  R MERGE                    (I) : 0.09200                            
 200  R SYM                      (I) : NULL                               
 200  <I/SIGMA(I)> FOR THE DATA SET  : 39.4000                            
 200                                                                      
 200 IN THE HIGHEST RESOLUTION SHELL.                                     
 200  HIGHEST RESOLUTION SHELL, RANGE HIGH (A) : 1.53                     
 200  HIGHEST RESOLUTION SHELL, RANGE LOW  (A) : 1.57                     
 200  COMPLETENESS FOR SHELL     (%) : 84.9                               
 200  DATA REDUNDANCY IN SHELL       : NULL                               
 200  R MERGE FOR SHELL          (I) : 0.29100                            
 200  R SYM FOR SHELL            (I) : NULL                               
 200  <I/SIGMA(I)> FOR SHELL         : 3.800                              
 200                                                                      
 200 DIFFRACTION PROTOCOL: SINGLE WAVELENGTH                              
 200 METHOD USED TO DETERMINE THE STRUCTURE: ISOMORPHOUS REPLACEMENT      
 200 SOFTWARE USED: ISOMORPHOUS REPLACEMENT                               
 200 STARTING MODEL: NULL                                                 
 200                                                                      
 200 REMARK: NULL                                                         
 280                                                                      
 280 CRYSTAL                                                              
 280 SOLVENT CONTENT, VS   (%): 33.11                                     
 280 MATTHEWS COEFFICIENT, VM (ANGSTROMS**3/DA): 1.84                     
 280                                                                      
 280 CRYSTALLIZATION CONDITIONS: 25% PEG 6000, 100MM HEPES PH 7.0,        
 280  0.56MM CYMAL-6, VAPOR DIFFUSION, SITTING DROP, TEMPERATURE 293K     
 290                                                                      
 290 CRYSTALLOGRAPHIC SYMMETRY                                            
 290 SYMMETRY OPERATORS FOR SPACE GROUP: P 21 21 21                       
 290                                                                      
 290      SYMOP   SYMMETRY                                                
 290     NNNMMM   OPERATOR                                                
 290       1555   X,Y,Z                                                   
 290       2555   -X+1/2,-Y,Z+1/2                                         
 290       3555   -X,Y+1/2,-Z+1/2                                         
 290       4555   X+1/2,-Y+1/2,-Z                                         
 290                                                                      
 290     WHERE NNN -> OPERATOR NUMBER                                     
 290           MMM -> TRANSLATION VECTOR                                  
 290                                                                      
 290 CRYSTALLOGRAPHIC SYMMETRY TRANSFORMATIONS                            
 290 THE FOLLOWING TRANSFORMATIONS OPERATE ON THE ATOM/HETATM             
 290 RECORDS IN THIS ENTRY TO PRODUCE CRYSTALLOGRAPHICALLY                
 290 RELATED MOLECULES.                                                   
 290   SMTRY1   1  1.000000  0.000000  0.000000        0.00000            
 290   SMTRY2   1  0.000000  1.000000  0.000000        0.00000            
 290   SMTRY3   1  0.000000  0.000000  1.000000        0.00000            
 290   SMTRY1   2 -1.000000  0.000000  0.000000       24.81950            
 290   SMTRY2   2  0.000000 -1.000000  0.000000        0.00000            
 290   SMTRY3   2  0.000000  0.000000  1.000000       41.67550            
 290   SMTRY1   3 -1.000000  0.000000  0.000000        0.00000            
 290   SMTRY2   3  0.000000  1.000000  0.000000       27.78800            
 290   SMTRY3   3  0.000000  0.000000 -1.000000       41.67550            
 290   SMTRY1   4  1.000000  0.000000  0.000000       24.81950            
 290   SMTRY2   4  0.000000 -1.000000  0.000000       27.78800            
 290   SMTRY3   4  0.000000  0.000000 -1.000000        0.00000            
 290                                                                      
 290 REMARK: NULL                                                         
 300                                                                      
 300 BIOMOLECULE: 1                                                       
 300 SEE REMARK 350 FOR THE AUTHOR PROVIDED AND/OR PROGRAM                
 300 GENERATED ASSEMBLY INFORMATION FOR THE STRUCTURE IN                  
 300 THIS ENTRY. THE REMARK MAY ALSO PROVIDE INFORMATION ON               
 300 BURIED SURFACE AREA.                                                 
 350                                                                      
 350 COORDINATES FOR A COMPLETE MULTIMER REPRESENTING THE KNOWN           
 350 BIOLOGICALLY SIGNIFICANT OLIGOMERIZATION STATE OF THE                
 350 MOLECULE CAN BE GENERATED BY APPLYING BIOMT TRANSFORMATIONS          
 350 GIVEN BELOW.  BOTH NON-CRYSTALLOGRAPHIC AND                          
 350 CRYSTALLOGRAPHIC OPERATIONS ARE GIVEN.                               
 350                                                                      
 350 BIOMOLECULE: 1                                                       
 350 AUTHOR DETERMINED BIOLOGICAL UNIT: MONOMERIC                         
 350 SOFTWARE DETERMINED QUATERNARY STRUCTURE: MONOMERIC                  
 350 SOFTWARE USED: PISA                                                  
 350 APPLY THE FOLLOWING TO CHAINS: A                                     
 350   BIOMT1   1  1.000000  0.000000  0.000000        0.00000            
 350   BIOMT2   1  0.000000  1.000000  0.000000        0.00000            
 350   BIOMT3   1  0.000000  0.000000  1.000000        0.00000            
 465                                                                      
 465 MISSING RESIDUES                                                     
 465 THE FOLLOWING RESIDUES WERE NOT LOCATED IN THE                       
 465 EXPERIMENT. (M=MODEL NUMBER; RES=RESIDUE NAME; C=CHAIN               
 465 IDENTIFIER; SSSEQ=SEQUENCE NUMBER; I=INSERTION CODE.)                
 465                                                                      
 465   M RES C SSSEQI                                                     
 465     MET A     5                                                      
 465     ARG A     6                                                      
 465     TYR A     7                                                      
 465     ILE A     8                                                      
 465     ARG A     9                                                      
 465     LEU A    10                                                      
 465     CYS A    11                                                      
 465     ILE A    12                                                      
 465     ILE A    13                                                      
 465     SER A    14                                                      
 465     LEU A    15                                                      
 465     LEU A    16                                                      
 465     ALA A    17                                                      
 465     THR A    18                                                      
 465     LEU A    19                                                      
 465     PRO A    20                                                      
 465     LEU A    21                                                      
 465     ALA A    22                                                      
 465     VAL A    23                                                      
 465     HIS A    24                                                      
 465     ALA A    25                                                      
 500                                                                      
 500 GEOMETRY AND STEREOCHEMISTRY                                         
 500 SUBTOPIC: TORSION ANGLES                                             
 500                                                                      
 500 TORSION ANGLES OUTSIDE THE EXPECTED RAMACHANDRAN REGIONS:            
 500 (M=MODEL NUMBER; RES=RESIDUE NAME; C=CHAIN IDENTIFIER;               
 500 SSEQ=SEQUENCE NUMBER; I=INSERTION CODE).                             
 500                                                                      
 500 STANDARD TABLE:                                                      
 500 FORMAT:(10X,I3,1X,A3,1X,A1,I4,A1,4X,F7.2,3X,F7.2)                    
 500                                                                      
 500 EXPECTED VALUES: GJ KLEYWEGT AND TA JONES (1996). PHI/PSI-           
 500 CHOLOGY: RAMACHANDRAN REVISITED. STRUCTURE 4, 1395 - 1400            
 500                                                                      
 500  M RES CSSEQI        PSI       PHI                                   
 500    MET A  69     -140.48     51.79                                   
 500    TYR A 105       87.85     77.64                                   
 500    VAL A 216      -72.90   -110.31                                   
 500                                                                      
 500 REMARK: NULL                                                         
 610                                                                      
 610 MISSING HETEROATOM                                                   
 610 THE FOLLOWING RESIDUES HAVE MISSING ATOMS (M=MODEL NUMBER;           
 610 RES=RESIDUE NAME; C=CHAIN IDENTIFIER; SSEQ=SEQUENCE NUMBER;          
 610 I=INSERTION CODE):                                                   
 610   M RES C SSEQI                                                      
 610     MA4 A  303                                                       
 800                                                                      
 800 SITE                                                                 
 800 SITE_IDENTIFIER: AC1                                                 
 800 EVIDENCE_CODE: SOFTWARE                                              
 800 SITE_DESCRIPTION: BINDING SITE FOR RESIDUE 17K A 301                 
 800                                                                      
 800 SITE_IDENTIFIER: AC2                                                 
 800 EVIDENCE_CODE: SOFTWARE                                              
 800 SITE_DESCRIPTION: BINDING SITE FOR RESIDUE MA4 A 302                 
 800                                                                      
 800 SITE_IDENTIFIER: AC3                                                 
 800 EVIDENCE_CODE: SOFTWARE                                              
 800 SITE_DESCRIPTION: BINDING SITE FOR RESIDUE MA4 A 303                 
 900                                                                      
 900 RELATED ENTRIES                                                      
 900 RELATED ID: 3D4F   RELATED DB: PDB                                   
 900 SHV-1 BETA-LACTAMASE IN COMPLEX WITH LN1-255                         
 900 RELATED ID: 4GD8   RELATED DB: PDB                                   
 900 RELATED ID: 4GDB   RELATED DB: PDB                                   

>  <DBREF>
 4GD6 A    5   292  UNP    P0AD64   BLA1_KLEPN       1    286             

>  <SEQRES>
   1 A  286  MET ARG TYR ILE ARG LEU CYS ILE ILE SER LEU LEU ALA          
   2 A  286  THR LEU PRO LEU ALA VAL HIS ALA SER PRO GLN PRO LEU          
   3 A  286  GLU GLN ILE LYS LEU SER GLU SER GLN LEU SER GLY ARG          
   4 A  286  VAL GLY MET ILE GLU MET ASP LEU ALA SER GLY ARG THR          
   5 A  286  LEU THR ALA TRP ARG ALA ASP GLU ARG PHE PRO MET MET          
   6 A  286  SER THR PHE LYS VAL VAL LEU CYS GLY ALA VAL LEU ALA          
   7 A  286  ARG VAL ASP ALA GLY ASP GLU GLN LEU GLU ARG LYS ILE          
   8 A  286  HIS TYR ARG GLN GLN ASP LEU VAL ASP TYR SER PRO VAL          
   9 A  286  SER GLU LYS HIS LEU ALA ASP GLY MET THR VAL GLY GLU          
  10 A  286  LEU CYS ALA ALA ALA ILE THR MET SER ASP ASN SER ALA          
  11 A  286  ALA ASN LEU LEU LEU ALA THR VAL GLY GLY PRO ALA GLY          
  12 A  286  LEU THR ALA PHE LEU ARG GLN ILE GLY ASP ASN VAL THR          
  13 A  286  ARG LEU ASP ARG TRP GLU THR GLU LEU ASN GLU ALA LEU          
  14 A  286  PRO GLY ASP ALA ARG ASP THR THR THR PRO ALA SER MET          
  15 A  286  ALA ALA THR LEU ARG LYS LEU LEU THR SER GLN ARG LEU          
  16 A  286  SER ALA ARG SER GLN ARG GLN LEU LEU GLN TRP MET VAL          
  17 A  286  ASP ASP ARG VAL ALA GLY PRO LEU ILE ARG SER VAL LEU          
  18 A  286  PRO ALA GLY TRP PHE ILE ALA ASP LYS THR GLY ALA GLY          
  19 A  286  GLU ARG GLY ALA ARG GLY ILE VAL ALA LEU LEU GLY PRO          
  20 A  286  ASN ASN LYS ALA GLU ARG ILE VAL VAL ILE TYR LEU ARG          
  21 A  286  ASP THR PRO ALA SER MET ALA GLU ARG ASN GLN GLN ILE          
  22 A  286  ALA GLY ILE GLY ALA ALA LEU ILE GLU HIS TRP GLN ARG          

>  <HET>
 17K  A 301      32                                                       
 MA4  A 302      35                                                       
 MA4  A 303       9                                                       

>  <HETNAM>
     17K (3R)-N-(2-FORMYLINDOLIZIN-3-YL)-4-[(PHENYLACETYL)OXY]-           
   2 17K  3-SULFINO-D-VALINE                                              
     MA4 CYCLOHEXYL-HEXYL-BETA-D-MALTOSIDE                                

>  <HETSYN>
     17K PENAM SULFONE SA1-204, OPEN FORM                                 

>  <FORMUL>
   2  17K    C22 H22 N2 O7 S                                              
   3  MA4    2(C24 H44 O11)                                               
   5  HOH   *261(H2 O)                                                    

>  <HELIX>
   1   1 GLN A   28  SER A   41  1                                  14    
   2   2 THR A   71  ALA A   86  1                                  16    
   3   3 ARG A   98  LEU A  102  5                                   5    
   4   4 VAL A  108  LEU A  113  5                                   6    
   5   5 VAL A  119  SER A  130  1                                  12    
   6   6 ASP A  131  VAL A  142  1                                  12    
   7   7 GLY A  143  ILE A  155  1                                  13    
   8   8 THR A  167  GLU A  171  5                                   5    
   9   9 THR A  182  SER A  196  1                                  15    
  10  10 SER A  200  ASP A  213  1                                  14    
  11  11 VAL A  216  LEU A  225  1                                  10    
  12  12 SER A  271  HIS A  289  1                                  19    

>  <SHEET>
   1   A 5 THR A  56  TRP A  60  0                                        
   2   A 5 ARG A  43  ASP A  50 -1  N  GLU A  48   O  LEU A  57           
   3   A 5 ARG A 259  ARG A 266 -1  O  ILE A 260   N  MET A  49           
   4   A 5 ARG A 244  GLY A 251 -1  N  ARG A 244   O  LEU A 265           
   5   A 5 PHE A 230  ALA A 237 -1  N  PHE A 230   O  GLY A 251           
   1   B 2 PHE A  66  PRO A  67  0                                        
   2   B 2 THR A 180  THR A 181 -1  O  THR A 181   N  PHE A  66           
   1   C 2 LYS A  94  ILE A  95  0                                        
   2   C 2 MET A 117  THR A 118 -1  O  MET A 117   N  ILE A  95           

>  <SSBOND>
   1 CYS A   77    CYS A  123                          1555   1555  2.07  

>  <LINK>
       OG  SER A  70                 CAH 17K A 301     1555   1555  1.36  

>  <CISPEP>
   1 GLU A  166    THR A  167          0         0.22                     

>  <SITE>
   1 AC1 18 SER A  70  TYR A 105  SER A 130  VAL A 216                    
   2 AC1 18 LEU A 220  LYS A 234  THR A 235  GLY A 236                    
   3 AC1 18 ALA A 237  ARG A 244  ASN A 276  MA4 A 303                    
   4 AC1 18 HOH A 433  HOH A 465  HOH A 565  HOH A 625                    
   5 AC1 18 HOH A 627  HOH A 629                                          
   1 AC2 18 ARG A  93  LYS A  94  ILE A  95  HIS A  96                    
   2 AC2 18 ARG A  98  VAL A 224  PRO A 226  ALA A 248                    
   3 AC2 18 VAL A 261  ILE A 263  ALA A 280  ALA A 284                    
   4 AC2 18 GLU A 288  HOH A 410  HOH A 431  HOH A 452                    
   5 AC2 18 HOH A 614  HOH A 639                                          
   1 AC3  4 THR A 235  ASN A 276  ILE A 279  17K A 301                    

>  <ORIGX1>
      1.000000  0.000000  0.000000        0.00000                         

>  <ORIGX2>
      0.000000  1.000000  0.000000        0.00000                         

>  <ORIGX3>
      0.000000  0.000000  1.000000        0.00000                         

>  <SCALE1>
      0.020145  0.000000  0.000000        0.00000                         

>  <SCALE2>
      0.000000  0.017993  0.000000        0.00000                         

>  <SCALE3>
      0.000000  0.000000  0.011997        0.00000                         

>  <MASTER>
      310    0    3   12    9    0   11    6 2361    1   79   22          

$$$$
