start_structures/Ligand_Substrate/Ligand_Complex_Stripped/1OG_4JPM.pdb
 OpenBabel08222315203D

 33 33  0  0  1  0  0  0  0  0999 V2000
    8.3780   32.6360    8.4560 N   0  0  0  0  0  0  0  0  0  0  0  0
    7.9120   31.4690    7.7150 C   0  0  2  0  0  0  0  0  0  0  0  0
    8.4220   30.1460    8.2540 C   0  0  0  0  0  0  0  0  0  0  0  0
    7.9330   29.0980    7.8190 O   0  0  0  0  0  0  0  0  0  0  0  0
    8.3160   31.5330    6.2420 C   0  0  0  0  0  0  0  0  0  0  0  0
    7.7040   32.6140    5.5550 O   0  0  0  0  0  0  0  0  0  0  0  0
   11.1460   39.5980    2.3810 C   0  0  0  0  0  0  0  0  0  0  0  0
    9.8960   39.2120    3.1560 C   0  0  0  0  0  0  0  0  0  0  0  0
    8.6630   39.7580    2.4250 C   0  0  0  0  0  0  0  0  0  0  0  0
    9.9770   39.7990    4.5680 C   0  0  0  0  0  0  0  0  0  0  0  0
    9.9390   37.7480    3.1990 O   0  0  0  0  0  0  0  0  0  0  0  0
    8.9890   36.9730    3.7560 C   0  0  0  0  0  0  0  0  0  0  0  0
    7.9190   37.4360    4.1670 O   0  0  0  0  0  0  0  0  0  0  0  0
    9.2760   35.5990    3.8690 C   0  0  1  0  0  0  0  0  0  0  0  0
    8.2490   34.7790    4.3490 C   0  0  2  0  0  0  0  0  0  0  0  0
    8.6200   33.8330    5.4310 C   0  0  0  0  0  0  0  0  0  0  0  0
    9.5110   34.0480    6.1980 O   0  0  0  0  0  0  0  0  0  0  0  0
    7.1120   34.4450    3.6030 C   0  0  0  0  0  0  0  0  0  0  0  0
    6.6950   34.8340    2.3930 N   0  0  0  0  0  0  0  0  0  0  0  0
    7.2550   35.7520    1.5730 C   0  0  2  0  0  0  0  0  0  0  0  0
    6.4920   37.0560    1.3480 C   0  0  0  0  0  0  0  0  0  0  0  0
    5.5460   37.3190    2.1340 O   0  0  0  0  0  0  0  0  0  0  0  0
    6.8630   37.8160    0.4410 O   0  0  0  0  0  0  0  0  0  0  0  0
    8.4390   35.4190    0.9000 C   0  0  0  0  0  0  0  0  0  0  0  0
    9.2840   34.2140    1.3290 C   0  0  0  0  0  0  0  0  0  0  0  0
   10.4250   34.7550    2.6410 S   0  0  0  0  0  0  0  0  0  0  0  0
   11.0270   33.5250    3.2650 O   0  0  0  0  0  0  0  0  0  0  0  0
   11.4700   35.6150    2.0280 O   0  0  0  0  0  0  0  0  0  0  0  0
    8.9920   36.2210   -0.1000 C   0  0  0  0  0  0  0  0  0  0  0  0
   10.0870   35.6580   -0.8230 O   0  0  0  0  0  0  0  0  0  0  0  0
   10.6080   36.5560   -1.7000 C   0  0  0  0  0  0  0  0  0  0  0  0
   11.7290   37.5000   -1.2520 C   0  0  0  0  0  0  0  0  0  0  0  0
   10.1810   36.5860   -2.8540 O   0  0  0  0  0  0  0  0  0  0  0  0
  2  3  1  0  0  0  0
  2  1  1  1  0  0  0
  4  3  2  0  0  0  0
  5  2  1  0  0  0  0
  6 16  1  0  0  0  0
  6  5  1  0  0  0  0
  7  8  1  0  0  0  0
  8  9  1  0  0  0  0
  8 10  1  0  0  0  0
  8 11  1  0  0  0  0
 11 12  1  0  0  0  0
 12 13  2  0  0  0  0
 14 12  1  6  0  0  0
 14 15  1  0  0  0  0
 14 26  1  0  0  0  0
 15 16  1  6  0  0  0
 15 18  1  0  0  0  0
 16 17  2  0  0  0  0
 18 19  2  0  0  0  0
 19 20  1  0  0  0  0
 20 21  1  6  0  0  0
 20 24  1  0  0  0  0
 21 22  2  0  0  0  0
 21 23  1  0  0  0  0
 24 25  1  0  0  0  0
 24 29  2  0  0  0  0
 25 26  1  0  0  0  0
 26 27  2  0  0  0  0
 26 28  2  0  0  0  0
 29 30  1  0  0  0  0
 30 31  1  0  0  0  0
 31 32  1  0  0  0  0
 31 33  2  0  0  0  0
M  END
>  <HEADER>
    HYDROLASE/HYDROLASE INHIBITOR           19-MAR-13   4JPM              

>  <TITLE>
    STRUCTURE OF SHV-1 BETA-LACTAMASE IN COMPLEX WITH THE 7-              
   2 ALKYLIDENECEPHALOSPORIN DCM-1-10 AT 1.14 ANG RESOLUTION              

>  <COMPND>
    MOL_ID: 1;                                                            
   2 MOLECULE: BETA-LACTAMASE SHV-1;                                      
   3 CHAIN: A;                                                            
   4 FRAGMENT: SVH-1 BETA-LACTAMASE;                                      
   5 SYNONYM: PIT-2;                                                      
   6 EC: 3.5.2.6;                                                         
   7 ENGINEERED: YES                                                      

>  <SOURCE>
    MOL_ID: 1;                                                            
   2 ORGANISM_SCIENTIFIC: KLEBSIELLA PNEUMONIAE;                          
   3 ORGANISM_TAXID: 573;                                                 
   4 GENE: BLA, SHV1;                                                     
   5 EXPRESSION_SYSTEM: ESCHERICHIA COLI;                                 
   6 EXPRESSION_SYSTEM_TAXID: 562                                         

>  <KEYWDS>
    CLASS A BETA-LACTAMASE, HYDROLASE-HYDROLASE INHIBITOR COMPLEX         

>  <EXPDTA>
    X-RAY DIFFRACTION                                                     

>  <AUTHOR>
    E.A.RODKEY,F.VAN DEN AKKER                                            

>  <REVDAT>
   2   05-FEB-14 4JPM    1       JRNL                                     
   1   04-DEC-13 4JPM    0                                                

>  <JRNL>
      AUTH   E.A.RODKEY,D.C.MCLEOD,C.R.BETHEL,K.M.SMITH,Y.XU,W.CHAI,      
      AUTH 2 T.CHE,P.R.CAREY,R.A.BONOMO,F.VAN DEN AKKER,J.D.BUYNAK        
      TITL   BETA-LACTAMASE INHIBITION BY 7-ALKYLIDENECEPHALOSPORIN       
      TITL 2 SULFONES: ALLYLIC TRANSPOSITION AND FORMATION OF AN          
      TITL 3 UNPRECEDENTED STABILIZED ACYL-ENZYME.                        
      REF    J.AM.CHEM.SOC.                V. 135 18358 2013              
      REFN                   ISSN 0002-7863                               
      PMID   24219313                                                     
      DOI    10.1021/JA403598G                                            

>  <REMARK>
   2                                                                      
   2 RESOLUTION.    1.14 ANGSTROMS.                                       
   3                                                                      
   3 REFINEMENT.                                                          
   3   PROGRAM     : REFMAC 5.5.0110                                      
   3   AUTHORS     : MURSHUDOV,VAGIN,DODSON                               
   3                                                                      
   3    REFINEMENT TARGET : MAXIMUM LIKELIHOOD                            
   3                                                                      
   3  DATA USED IN REFINEMENT.                                            
   3   RESOLUTION RANGE HIGH (ANGSTROMS) : 1.14                           
   3   RESOLUTION RANGE LOW  (ANGSTROMS) : 24.41                          
   3   DATA CUTOFF            (SIGMA(F)) : NULL                           
   3   COMPLETENESS FOR RANGE        (%) : 95.2                           
   3   NUMBER OF REFLECTIONS             : 76013                          
   3                                                                      
   3  FIT TO DATA USED IN REFINEMENT.                                     
   3   CROSS-VALIDATION METHOD          : THROUGHOUT                      
   3   FREE R VALUE TEST SET SELECTION  : RANDOM                          
   3   R VALUE     (WORKING + TEST SET) : 0.132                           
   3   R VALUE            (WORKING SET) : 0.131                           
   3   FREE R VALUE                     : 0.164                           
   3   FREE R VALUE TEST SET SIZE   (%) : 5.000                           
   3   FREE R VALUE TEST SET COUNT      : 3993                            
   3                                                                      
   3  FIT IN THE HIGHEST RESOLUTION BIN.                                  
   3   TOTAL NUMBER OF BINS USED           : 20                           
   3   BIN RESOLUTION RANGE HIGH       (A) : 1.14                         
   3   BIN RESOLUTION RANGE LOW        (A) : 1.17                         
   3   REFLECTION IN BIN     (WORKING SET) : 4768                         
   3   BIN COMPLETENESS (WORKING+TEST) (%) : 81.66                        
   3   BIN R VALUE           (WORKING SET) : 0.2330                       
   3   BIN FREE R VALUE SET COUNT          : 247                          
   3   BIN FREE R VALUE                    : 0.2890                       
   3                                                                      
   3  NUMBER OF NON-HYDROGEN ATOMS USED IN REFINEMENT.                    
   3   PROTEIN ATOMS            : 2024                                    
   3   NUCLEIC ACID ATOMS       : 0                                       
   3   HETEROGEN ATOMS          : 77                                      
   3   SOLVENT ATOMS            : 338                                     
   3                                                                      
   3  B VALUES.                                                           
   3   FROM WILSON PLOT           (A**2) : NULL                           
   3   MEAN B VALUE      (OVERALL, A**2) : 15.61                          
   3   OVERALL ANISOTROPIC B VALUE.                                       
   3    B11 (A**2) : -0.07000                                             
   3    B22 (A**2) : 0.00000                                              
   3    B33 (A**2) : 0.07000                                              
   3    B12 (A**2) : 0.00000                                              
   3    B13 (A**2) : 0.00000                                              
   3    B23 (A**2) : 0.00000                                              
   3                                                                      
   3  ESTIMATED OVERALL COORDINATE ERROR.                                 
   3   ESU BASED ON R VALUE                            (A): 0.034         
   3   ESU BASED ON FREE R VALUE                       (A): 0.035         
   3   ESU BASED ON MAXIMUM LIKELIHOOD                 (A): 0.022         
   3   ESU FOR B VALUES BASED ON MAXIMUM LIKELIHOOD (A**2): 1.018         
   3                                                                      
   3 CORRELATION COEFFICIENTS.                                            
   3   CORRELATION COEFFICIENT FO-FC      : 0.979                         
   3   CORRELATION COEFFICIENT FO-FC FREE : 0.970                         
   3                                                                      
   3  RMS DEVIATIONS FROM IDEAL VALUES        COUNT    RMS    WEIGHT      
   3   BOND LENGTHS REFINED ATOMS        (A):  2262 ; 0.010 ; 0.022       
   3   BOND LENGTHS OTHERS               (A):  NULL ;  NULL ;  NULL       
   3   BOND ANGLES REFINED ATOMS   (DEGREES):  3081 ; 1.459 ; 2.009       
   3   BOND ANGLES OTHERS          (DEGREES):  NULL ;  NULL ;  NULL       
   3   TORSION ANGLES, PERIOD 1    (DEGREES):   291 ; 5.999 ; 5.000       
   3   TORSION ANGLES, PERIOD 2    (DEGREES):    94 ;35.917 ;23.404       
   3   TORSION ANGLES, PERIOD 3    (DEGREES):   387 ;11.941 ;15.000       
   3   TORSION ANGLES, PERIOD 4    (DEGREES):    23 ;18.638 ;15.000       
   3   CHIRAL-CENTER RESTRAINTS       (A**3):   356 ; 0.087 ; 0.200       
   3   GENERAL PLANES REFINED ATOMS      (A):  1687 ; 0.008 ; 0.021       
   3   GENERAL PLANES OTHERS             (A):  NULL ;  NULL ;  NULL       
   3   NON-BONDED CONTACTS REFINED ATOMS (A):  NULL ;  NULL ;  NULL       
   3   NON-BONDED CONTACTS OTHERS        (A):  NULL ;  NULL ;  NULL       
   3   NON-BONDED TORSION REFINED ATOMS  (A):  NULL ;  NULL ;  NULL       
   3   NON-BONDED TORSION OTHERS         (A):  NULL ;  NULL ;  NULL       
   3   H-BOND (X...Y) REFINED ATOMS      (A):  NULL ;  NULL ;  NULL       
   3   H-BOND (X...Y) OTHERS             (A):  NULL ;  NULL ;  NULL       
   3   POTENTIAL METAL-ION REFINED ATOMS (A):  NULL ;  NULL ;  NULL       
   3   POTENTIAL METAL-ION OTHERS        (A):  NULL ;  NULL ;  NULL       
   3   SYMMETRY VDW REFINED ATOMS        (A):  NULL ;  NULL ;  NULL       
   3   SYMMETRY VDW OTHERS               (A):  NULL ;  NULL ;  NULL       
   3   SYMMETRY H-BOND REFINED ATOMS     (A):  NULL ;  NULL ;  NULL       
   3   SYMMETRY H-BOND OTHERS            (A):  NULL ;  NULL ;  NULL       
   3   SYMMETRY METAL-ION REFINED ATOMS  (A):  NULL ;  NULL ;  NULL       
   3   SYMMETRY METAL-ION OTHERS         (A):  NULL ;  NULL ;  NULL       
   3                                                                      
   3  ISOTROPIC THERMAL FACTOR RESTRAINTS.     COUNT   RMS    WEIGHT      
   3   MAIN-CHAIN BOND REFINED ATOMS  (A**2):  1398 ; 2.945 ; 1.500       
   3   MAIN-CHAIN BOND OTHER ATOMS    (A**2):  NULL ;  NULL ;  NULL       
   3   MAIN-CHAIN ANGLE REFINED ATOMS (A**2):  2254 ; 3.861 ; 2.000       
   3   MAIN-CHAIN ANGLE OTHER ATOMS   (A**2):  NULL ;  NULL ;  NULL       
   3   SIDE-CHAIN BOND REFINED ATOMS  (A**2):   864 ; 6.057 ; 3.000       
   3   SIDE-CHAIN BOND OTHER ATOMS    (A**2):  NULL ;  NULL ;  NULL       
   3   SIDE-CHAIN ANGLE REFINED ATOMS (A**2):   827 ; 8.268 ; 4.500       
   3   SIDE-CHAIN ANGLE OTHER ATOMS   (A**2):  NULL ;  NULL ;  NULL       
   3   LONG RANGE B REFINED ATOMS     (A**2):  NULL ;  NULL ;  NULL       
   3   LONG RANGE B OTHER ATOMS       (A**2):  NULL ;  NULL ;  NULL       
   3                                                                      
   3 ANISOTROPIC THERMAL FACTOR RESTRAINTS.    COUNT   RMS   WEIGHT       
   3   RIGID-BOND RESTRAINTS          (A**2):  2262 ; 3.638 ; 3.000       
   3   SPHERICITY; FREE ATOMS         (A**2):   338 ;18.702 ; 3.000       
   3   SPHERICITY; BONDED ATOMS       (A**2):  2216 ; 9.086 ; 3.000       
   3                                                                      
   3  NCS RESTRAINTS STATISTICS                                           
   3   NUMBER OF DIFFERENT NCS GROUPS : NULL                              
   3                                                                      
   3  TLS DETAILS                                                         
   3   NUMBER OF TLS GROUPS  : NULL                                       
   3                                                                      
   3  BULK SOLVENT MODELLING.                                             
   3   METHOD USED : MASK                                                 
   3   PARAMETERS FOR MASK CALCULATION                                    
   3   VDW PROBE RADIUS   : 1.40                                          
   3   ION PROBE RADIUS   : 0.80                                          
   3   SHRINKAGE RADIUS   : 0.80                                          
   3                                                                      
   3  OTHER REFINEMENT REMARKS: HYDROGENS HAVE BEEN ADDED IN THE RIDING   
   3  POSITIONS                                                           
   4                                                                      
   4 4JPM COMPLIES WITH FORMAT V. 3.30, 13-JUL-11                         
 100                                                                      
 100 THIS ENTRY HAS BEEN PROCESSED BY RCSB ON 11-APR-13.                  
 100 THE RCSB ID CODE IS RCSB078344.                                      
 200                                                                      
 200 EXPERIMENTAL DETAILS                                                 
 200  EXPERIMENT TYPE                : X-RAY DIFFRACTION                  
 200  DATE OF DATA COLLECTION        : 01-JUL-10                          
 200  TEMPERATURE           (KELVIN) : 100                                
 200  PH                             : 6.8-7.8                            
 200  NUMBER OF CRYSTALS USED        : 1                                  
 200                                                                      
 200  SYNCHROTRON              (Y/N) : Y                                  
 200  RADIATION SOURCE               : SSRL                               
 200  BEAMLINE                       : BL7-1                              
 200  X-RAY GENERATOR MODEL          : NULL                               
 200  MONOCHROMATIC OR LAUE    (M/L) : M                                  
 200  WAVELENGTH OR RANGE        (A) : 0.97946                            
 200  MONOCHROMATOR                  : MONOCHR.                           
 200  OPTICS                         : NULL                               
 200                                                                      
 200  DETECTOR TYPE                  : CCD                                
 200  DETECTOR MANUFACTURER          : ADSC QUANTUM 315R                  
 200  INTENSITY-INTEGRATION SOFTWARE : HKL-2000                           
 200  DATA SCALING SOFTWARE          : HKL-2000                           
 200                                                                      
 200  NUMBER OF UNIQUE REFLECTIONS   : 76013                              
 200  RESOLUTION RANGE HIGH      (A) : 1.140                              
 200  RESOLUTION RANGE LOW       (A) : 24.410                             
 200  REJECTION CRITERIA  (SIGMA(I)) : 1.000                              
 200                                                                      
 200 OVERALL.                                                             
 200  COMPLETENESS FOR RANGE     (%) : 95.2                               
 200  DATA REDUNDANCY                : 3.600                              
 200  R MERGE                    (I) : 0.03800                            
 200  R SYM                      (I) : 0.03800                            
 200  <I/SIGMA(I)> FOR THE DATA SET  : 13.8000                            
 200                                                                      
 200 IN THE HIGHEST RESOLUTION SHELL.                                     
 200  HIGHEST RESOLUTION SHELL, RANGE HIGH (A) : 1.14                     
 200  HIGHEST RESOLUTION SHELL, RANGE LOW  (A) : 1.18                     
 200  COMPLETENESS FOR SHELL     (%) : 77.2                               
 200  DATA REDUNDANCY IN SHELL       : 3.20                               
 200  R MERGE FOR SHELL          (I) : NULL                               
 200  R SYM FOR SHELL            (I) : 0.35100                            
 200  <I/SIGMA(I)> FOR SHELL         : NULL                               
 200                                                                      
 200 DIFFRACTION PROTOCOL: SINGLE WAVELENGTH                              
 200 METHOD USED TO DETERMINE THE STRUCTURE: MOLECULAR REPLACEMENT        
 200 SOFTWARE USED: MOLREP                                                
 200 STARTING MODEL: PDB ENTRY 1SHV                                       
 200                                                                      
 200 REMARK: NULL                                                         
 280                                                                      
 280 CRYSTAL                                                              
 280 SOLVENT CONTENT, VS   (%): 32.98                                     
 280 MATTHEWS COEFFICIENT, VM (ANGSTROMS**3/DA): 1.84                     
 280                                                                      
 280 CRYSTALLIZATION CONDITIONS: 21-30% PEG 6000, 0.1M HEPES BUFFER,      
 280  0.56MM CYMAL-6, PH 6.8-7.8, VAPOR DIFFUSION, SITTING DROP,          
 280  TEMPERATURE 293K                                                    
 290                                                                      
 290 CRYSTALLOGRAPHIC SYMMETRY                                            
 290 SYMMETRY OPERATORS FOR SPACE GROUP: P 21 21 21                       
 290                                                                      
 290      SYMOP   SYMMETRY                                                
 290     NNNMMM   OPERATOR                                                
 290       1555   X,Y,Z                                                   
 290       2555   -X+1/2,-Y,Z+1/2                                         
 290       3555   -X,Y+1/2,-Z+1/2                                         
 290       4555   X+1/2,-Y+1/2,-Z                                         
 290                                                                      
 290     WHERE NNN -> OPERATOR NUMBER                                     
 290           MMM -> TRANSLATION VECTOR                                  
 290                                                                      
 290 CRYSTALLOGRAPHIC SYMMETRY TRANSFORMATIONS                            
 290 THE FOLLOWING TRANSFORMATIONS OPERATE ON THE ATOM/HETATM             
 290 RECORDS IN THIS ENTRY TO PRODUCE CRYSTALLOGRAPHICALLY                
 290 RELATED MOLECULES.                                                   
 290   SMTRY1   1  1.000000  0.000000  0.000000        0.00000            
 290   SMTRY2   1  0.000000  1.000000  0.000000        0.00000            
 290   SMTRY3   1  0.000000  0.000000  1.000000        0.00000            
 290   SMTRY1   2 -1.000000  0.000000  0.000000       24.65400            
 290   SMTRY2   2  0.000000 -1.000000  0.000000        0.00000            
 290   SMTRY3   2  0.000000  0.000000  1.000000       42.14250            
 290   SMTRY1   3 -1.000000  0.000000  0.000000        0.00000            
 290   SMTRY2   3  0.000000  1.000000  0.000000       27.61100            
 290   SMTRY3   3  0.000000  0.000000 -1.000000       42.14250            
 290   SMTRY1   4  1.000000  0.000000  0.000000       24.65400            
 290   SMTRY2   4  0.000000 -1.000000  0.000000       27.61100            
 290   SMTRY3   4  0.000000  0.000000 -1.000000        0.00000            
 290                                                                      
 290 REMARK: NULL                                                         
 300                                                                      
 300 BIOMOLECULE: 1                                                       
 300 SEE REMARK 350 FOR THE AUTHOR PROVIDED AND/OR PROGRAM                
 300 GENERATED ASSEMBLY INFORMATION FOR THE STRUCTURE IN                  
 300 THIS ENTRY. THE REMARK MAY ALSO PROVIDE INFORMATION ON               
 300 BURIED SURFACE AREA.                                                 
 350                                                                      
 350 COORDINATES FOR A COMPLETE MULTIMER REPRESENTING THE KNOWN           
 350 BIOLOGICALLY SIGNIFICANT OLIGOMERIZATION STATE OF THE                
 350 MOLECULE CAN BE GENERATED BY APPLYING BIOMT TRANSFORMATIONS          
 350 GIVEN BELOW.  BOTH NON-CRYSTALLOGRAPHIC AND                          
 350 CRYSTALLOGRAPHIC OPERATIONS ARE GIVEN.                               
 350                                                                      
 350 BIOMOLECULE: 1                                                       
 350 AUTHOR DETERMINED BIOLOGICAL UNIT: MONOMERIC                         
 350 SOFTWARE DETERMINED QUATERNARY STRUCTURE: MONOMERIC                  
 350 SOFTWARE USED: PISA                                                  
 350 APPLY THE FOLLOWING TO CHAINS: A                                     
 350   BIOMT1   1  1.000000  0.000000  0.000000        0.00000            
 350   BIOMT2   1  0.000000  1.000000  0.000000        0.00000            
 350   BIOMT3   1  0.000000  0.000000  1.000000        0.00000            
 465                                                                      
 465 MISSING RESIDUES                                                     
 465 THE FOLLOWING RESIDUES WERE NOT LOCATED IN THE                       
 465 EXPERIMENT. (M=MODEL NUMBER; RES=RESIDUE NAME; C=CHAIN               
 465 IDENTIFIER; SSSEQ=SEQUENCE NUMBER; I=INSERTION CODE.)                
 465                                                                      
 465   M RES C SSSEQI                                                     
 465     MET A     5                                                      
 465     ARG A     6                                                      
 465     TYR A     7                                                      
 465     ILE A     8                                                      
 465     ARG A     9                                                      
 465     LEU A    10                                                      
 465     CYS A    11                                                      
 465     ILE A    12                                                      
 465     ILE A    13                                                      
 465     SER A    14                                                      
 465     LEU A    15                                                      
 465     LEU A    16                                                      
 465     ALA A    17                                                      
 465     THR A    18                                                      
 465     LEU A    19                                                      
 465     PRO A    20                                                      
 465     LEU A    21                                                      
 465     ALA A    22                                                      
 465     VAL A    23                                                      
 465     HIS A    24                                                      
 465     ALA A    25                                                      
 500                                                                      
 500 GEOMETRY AND STEREOCHEMISTRY                                         
 500 SUBTOPIC: CLOSE CONTACTS IN SAME ASYMMETRIC UNIT                     
 500                                                                      
 500 THE FOLLOWING ATOMS ARE IN CLOSE CONTACT.                            
 500                                                                      
 500  ATM1  RES C  SSEQI   ATM2  RES C  SSEQI           DISTANCE          
 500   O    HOH A   525     O    HOH A   611              2.13            
 500   O    HOH A   539     O    HOH A   735              2.16            
 500                                                                      
 500 REMARK: NULL                                                         
 500                                                                      
 500 GEOMETRY AND STEREOCHEMISTRY                                         
 500 SUBTOPIC: CLOSE CONTACTS                                             
 500                                                                      
 500 THE FOLLOWING ATOMS THAT ARE RELATED BY CRYSTALLOGRAPHIC             
 500 SYMMETRY ARE IN CLOSE CONTACT.  AN ATOM LOCATED WITHIN 0.15          
 500 ANGSTROMS OF A SYMMETRY RELATED ATOM IS ASSUMED TO BE ON A           
 500 SPECIAL POSITION AND IS, THEREFORE, LISTED IN REMARK 375             
 500 INSTEAD OF REMARK 500.  ATOMS WITH NON-BLANK ALTERNATE               
 500 LOCATION INDICATORS ARE NOT INCLUDED IN THE CALCULATIONS.            
 500                                                                      
 500 DISTANCE CUTOFF:                                                     
 500 2.2 ANGSTROMS FOR CONTACTS NOT INVOLVING HYDROGEN ATOMS              
 500 1.6 ANGSTROMS FOR CONTACTS INVOLVING HYDROGEN ATOMS                  
 500                                                                      
 500  ATM1  RES C  SSEQI   ATM2  RES C  SSEQI  SSYMOP   DISTANCE          
 500   O    HOH A   621     O    HOH A   641     3545     1.79            
 500                                                                      
 500 REMARK: NULL                                                         
 500                                                                      
 500 GEOMETRY AND STEREOCHEMISTRY                                         
 500 SUBTOPIC: COVALENT BOND ANGLES                                       
 500                                                                      
 500 THE STEREOCHEMICAL PARAMETERS OF THE FOLLOWING RESIDUES              
 500 HAVE VALUES WHICH DEVIATE FROM EXPECTED VALUES BY MORE               
 500 THAN 6*RMSD (M=MODEL NUMBER; RES=RESIDUE NAME; C=CHAIN               
 500 IDENTIFIER; SSEQ=SEQUENCE NUMBER; I=INSERTION CODE).                 
 500                                                                      
 500 STANDARD TABLE:                                                      
 500 FORMAT: (10X,I3,1X,A3,1X,A1,I4,A1,3(1X,A4,2X),12X,F5.1)              
 500                                                                      
 500 EXPECTED VALUES PROTEIN: ENGH AND HUBER, 1999                        
 500 EXPECTED VALUES NUCLEIC ACID: CLOWNEY ET AL 1996                     
 500                                                                      
 500  M RES CSSEQI ATM1   ATM2   ATM3                                     
 500    ARG A 275   NE  -  CZ  -  NH1 ANGL. DEV. =  -5.2 DEGREES          
 500    ARG A 275   NE  -  CZ  -  NH2 ANGL. DEV. =   4.7 DEGREES          
 500                                                                      
 500 REMARK: NULL                                                         
 500                                                                      
 500 GEOMETRY AND STEREOCHEMISTRY                                         
 500 SUBTOPIC: TORSION ANGLES                                             
 500                                                                      
 500 TORSION ANGLES OUTSIDE THE EXPECTED RAMACHANDRAN REGIONS:            
 500 (M=MODEL NUMBER; RES=RESIDUE NAME; C=CHAIN IDENTIFIER;               
 500 SSEQ=SEQUENCE NUMBER; I=INSERTION CODE).                             
 500                                                                      
 500 STANDARD TABLE:                                                      
 500 FORMAT:(10X,I3,1X,A3,1X,A1,I4,A1,4X,F7.2,3X,F7.2)                    
 500                                                                      
 500 EXPECTED VALUES: GJ KLEYWEGT AND TA JONES (1996). PHI/PSI-           
 500 CHOLOGY: RAMACHANDRAN REVISITED. STRUCTURE 4, 1395 - 1400            
 500                                                                      
 500  M RES CSSEQI        PSI       PHI                                   
 500    MET A  69     -143.35     50.89                                   
 500    TYR A 105       79.87     68.26                                   
 500                                                                      
 500 REMARK: NULL                                                         
 610                                                                      
 610 MISSING HETEROATOM                                                   
 610 THE FOLLOWING RESIDUES HAVE MISSING ATOMS (M=MODEL NUMBER;           
 610 RES=RESIDUE NAME; C=CHAIN IDENTIFIER; SSEQ=SEQUENCE NUMBER;          
 610 I=INSERTION CODE):                                                   
 610   M RES C SSEQI                                                      
 610     MA4 A  302                                                       
 610     EPE A  304                                                       
 800                                                                      
 800 SITE                                                                 
 800 SITE_IDENTIFIER: AC1                                                 
 800 EVIDENCE_CODE: SOFTWARE                                              
 800 SITE_DESCRIPTION: BINDING SITE FOR RESIDUE MA4 A 301                 
 800                                                                      
 800 SITE_IDENTIFIER: AC2                                                 
 800 EVIDENCE_CODE: SOFTWARE                                              
 800 SITE_DESCRIPTION: BINDING SITE FOR RESIDUE MA4 A 302                 
 800                                                                      
 800 SITE_IDENTIFIER: AC3                                                 
 800 EVIDENCE_CODE: SOFTWARE                                              
 800 SITE_DESCRIPTION: BINDING SITE FOR RESIDUE 1OG A 303                 
 800                                                                      
 800 SITE_IDENTIFIER: AC4                                                 
 800 EVIDENCE_CODE: SOFTWARE                                              
 800 SITE_DESCRIPTION: BINDING SITE FOR RESIDUE EPE A 304                 
 900                                                                      
 900 RELATED ENTRIES                                                      
 900 RELATED ID: 4FH4   RELATED DB: PDB                                   
 900 WT SHV-1 BETA-LACTAMASE                                              

>  <DBREF>
 4JPM A    5   292  UNP    P0AD64   BLA1_KLEPN       1    286             

>  <SEQRES>
   1 A  286  MET ARG TYR ILE ARG LEU CYS ILE ILE SER LEU LEU ALA          
   2 A  286  THR LEU PRO LEU ALA VAL HIS ALA SER PRO GLN PRO LEU          
   3 A  286  GLU GLN ILE LYS LEU SER GLU SER GLN LEU SER GLY ARG          
   4 A  286  VAL GLY MET ILE GLU MET ASP LEU ALA SER GLY ARG THR          
   5 A  286  LEU THR ALA TRP ARG ALA ASP GLU ARG PHE PRO MET MET          
   6 A  286  SER THR PHE LYS VAL VAL LEU CYS GLY ALA VAL LEU ALA          
   7 A  286  ARG VAL ASP ALA GLY ASP GLU GLN LEU GLU ARG LYS ILE          
   8 A  286  HIS TYR ARG GLN GLN ASP LEU VAL ASP TYR SER PRO VAL          
   9 A  286  SER GLU LYS HIS LEU ALA ASP GLY MET THR VAL GLY GLU          
  10 A  286  LEU CYS ALA ALA ALA ILE THR MET SER ASP ASN SER ALA          
  11 A  286  ALA ASN LEU LEU LEU ALA THR VAL GLY GLY PRO ALA GLY          
  12 A  286  LEU THR ALA PHE LEU ARG GLN ILE GLY ASP ASN VAL THR          
  13 A  286  ARG LEU ASP ARG TRP GLU THR GLU LEU ASN GLU ALA LEU          
  14 A  286  PRO GLY ASP ALA ARG ASP THR THR THR PRO ALA SER MET          
  15 A  286  ALA ALA THR LEU ARG LYS LEU LEU THR SER GLN ARG LEU          
  16 A  286  SER ALA ARG SER GLN ARG GLN LEU LEU GLN TRP MET VAL          
  17 A  286  ASP ASP ARG VAL ALA GLY PRO LEU ILE ARG SER VAL LEU          
  18 A  286  PRO ALA GLY TRP PHE ILE ALA ASP LYS THR GLY ALA GLY          
  19 A  286  GLU ARG GLY ALA ARG GLY ILE VAL ALA LEU LEU GLY PRO          
  20 A  286  ASN ASN LYS ALA GLU ARG ILE VAL VAL ILE TYR LEU ARG          
  21 A  286  ASP THR PRO ALA SER MET ALA GLU ARG ASN GLN GLN ILE          
  22 A  286  ALA GLY ILE GLY ALA ALA LEU ILE GLU HIS TRP GLN ARG          

>  <HET>
 MA4  A 301      35                                                       
 MA4  A 302       9                                                       
 1OG  A 303      27                                                       
 EPE  A 304       6                                                       

>  <HETNAM>
     MA4 CYCLOHEXYL-HEXYL-BETA-D-MALTOSIDE                                
     1OG 7-ALKYLIDENECEPHALOSPORIN DCM-1-10, BOUND FORM                   
     EPE 4-(2-HYDROXYETHYL)-1-PIPERAZINE ETHANESULFONIC ACID              

>  <HETSYN>
     1OG (3Z,5Z,7S,8R)-3-[(ACETYLOXY)METHYL]-8-(TERT-                     
   2 1OG  BUTOXYCARBONYL)-7-FORMYL-7,8-DIHYDRO-2H-1,5-                    
   3 1OG  THIAZOCINE-4-CARBOXYLIC ACID 1,1-DIOXIDE                        
     EPE HEPES                                                            

>  <FORMUL>
   2  MA4    2(C24 H44 O11)                                               
   4  1OG    C16 H21 N O9 S                                               
   5  EPE    C8 H18 N2 O4 S                                               
   6  HOH   *338(H2 O)                                                    

>  <HELIX>
   1   1 GLN A   28  SER A   41  1                                  14    
   2   2 THR A   71  ALA A   86  1                                  16    
   3   3 ARG A   98  LEU A  102  5                                   5    
   4   4 VAL A  108  LEU A  113  5                                   6    
   5   5 VAL A  119  SER A  130  1                                  12    
   6   6 ASP A  131  VAL A  142  1                                  12    
   7   7 GLY A  143  ILE A  155  1                                  13    
   8   8 THR A  167  GLU A  171  5                                   5    
   9   9 THR A  182  SER A  196  1                                  15    
  10  10 SER A  200  ASP A  213  1                                  14    
  11  11 ALA A  217  LEU A  225  1                                   9    
  12  12 SER A  271  HIS A  289  1                                  19    

>  <SHEET>
   1   A 5 THR A  56  TRP A  60  0                                        
   2   A 5 ARG A  43  ASP A  50 -1  N  GLU A  48   O  LEU A  57           
   3   A 5 ARG A 259  ARG A 266 -1  O  ILE A 260   N  MET A  49           
   4   A 5 ARG A 244  GLY A 251 -1  N  ARG A 244   O  LEU A 265           
   5   A 5 PHE A 230  ALA A 237 -1  N  PHE A 230   O  GLY A 251           
   1   B 2 PHE A  66  PRO A  67  0                                        
   2   B 2 THR A 180  THR A 181 -1  O  THR A 181   N  PHE A  66           
   1   C 2 LYS A  94  ILE A  95  0                                        
   2   C 2 MET A 117  THR A 118 -1  O  MET A 117   N  ILE A  95           

>  <SSBOND>
   1 CYS A   77    CYS A  123                          1555   1555  2.07  

>  <LINK>
       OG  SER A  70                 CAL 1OG A 303     1555   1555  1.53  

>  <CISPEP>
   1 GLU A  166    THR A  167          0         5.90                     

>  <SITE>
   1 AC1 21 ARG A  93  LYS A  94  ILE A  95  HIS A  96                    
   2 AC1 21 VAL A 224  PRO A 226  ALA A 248  VAL A 261                    
   3 AC1 21 ILE A 263  ALA A 280  ALA A 284  GLU A 288                    
   4 AC1 21 HOH A 411  HOH A 487  HOH A 492  HOH A 623                    
   5 AC1 21 HOH A 659  HOH A 662  HOH A 671  HOH A 690                    
   6 AC1 21 HOH A 735                                                     
   1 AC2  3 ARG A 244  ASN A 276  ILE A 279                               
   1 AC3 12 MET A  69  SER A  70  TYR A 105  SER A 130                    
   2 AC3 12 ASN A 132  GLY A 236  ALA A 237  EPE A 304                    
   3 AC3 12 HOH A 653  HOH A 654  HOH A 663  HOH A 737                    
   1 AC4 10 SER A  70  SER A 130  VAL A 216  LYS A 234                    
   2 AC4 10 THR A 235  GLY A 236  ALA A 237  ARG A 244                    
   3 AC4 10 1OG A 303  HOH A 737                                          

>  <ORIGX1>
      1.000000  0.000000  0.000000        0.00000                         

>  <ORIGX2>
      0.000000  1.000000  0.000000        0.00000                         

>  <ORIGX3>
      0.000000  0.000000  1.000000        0.00000                         

>  <SCALE1>
      0.020281  0.000000  0.000000        0.00000                         

>  <SCALE2>
      0.000000  0.018109  0.000000        0.00000                         

>  <SCALE3>
      0.000000  0.000000  0.011865        0.00000                         

>  <ANISOU>
  384  N   SER A  70     1456   1197    795     35     -7    105       N  
  385  CA  SER A  70     1691   1019    894   -201     16    125       C  
  386  C   SER A  70     1441   1022    741   -213    -44    129       C  
  387  O   SER A  70     1573   1163    819   -236    -90     56       O  
  388  CB  SER A  70     1537   1253    721    236    -44    297       C  
  389  OG  SER A  70     1875   1754    917    275   -219    316       O  
 2185  CAB 1OG A 303     2590   2040   2640   -832   -306   1037       C  
 2186  CBA 1OG A 303     2171   1158   1971   -221   -139    451       C  
 2187  CAC 1OG A 303     2481   1230   2912   -113   -847    710       C  
 2188  CAD 1OG A 303     2223   1839   1685    127   -358    465       C  
 2189  OAS 1OG A 303     2482   1270   1836   -469   -292    586       O  
 2190  CAW 1OG A 303     1502   1406   1786   -466   -417    597       C  
 2191  OAH 1OG A 303     1750   1480   2547   -243   -173    439       O  
 2192  CAN 1OG A 303     2548   1252   1456   -684   -315    559       C  
 2193  CAV 1OG A 303     1956   1334   1486   -211   -401    591       C  
 2194  CAL 1OG A 303     1324    907   1614   -280    428    157       C  
 2195  OAE 1OG A 303     1447   1235    776   -399   -119     47       O  
 2196  CAM 1OG A 303     2159   1324   1861   -670   -635    501       C  
 2197  NAQ 1OG A 303     2499   2643   2229   -803   -967   1633       N  
 2198  CAY 1OG A 303     2647   2082   1577   -772   -965    475       C  
 2199  CAU 1OG A 303     2728   2379   1348   -391   -491    641       C  
 2200  OAK 1OG A 303     2340   2266   2964   -757   -939   1141       O  
 2201  OAG 1OG A 303     3543   2161   1932   -928  -1255   1044       O  
 2202  CAX 1OG A 303     3551   2283   1221   -761   -429   1089       C  
 2203  CAP 1OG A 303     3865   1775   1565   -478   -418   -340       C  
 2204  SAZ 1OG A 303     2927   2112   1077     21     75    342       S  
 2205  OAI 1OG A 303     3064   2497   1683    -96    337    254       O  
 2206  OAJ 1OG A 303     3550   2082   1603   -211    495    569       O  
 2207  CAO 1OG A 303     3309   3684   1645   -510   -651   1226       C  
 2208  OAR 1OG A 303     3988   4018   2058   -465    393    589       O  
 2209  CAT 1OG A 303     4320   4627   3746   -526    693    852       C  
 2210  CAA 1OG A 303     4785   4568   4636    168   -273    328       C  
 2211  OAF 1OG A 303     4878   5642   4944   -468   -241     73       O  

>  <MASTER>
      362    0    4   12    9    0   13    6 2439    1   80   22          

$$$$
