start_structures/Ligand_Substrate/Ligand_Complex_Stripped/1S7_6KA5.pdb
 OpenBabel08222315203D

 30 31  0  0  1  0  0  0  0  0999 V2000
   20.6330   -2.7500    3.9390 N   0  0  0  0  0  0  0  0  0  0  0  0
   20.6430   -3.1700    5.3350 C   0  0  2  0  0  0  0  0  0  0  0  0
   20.1150   -2.1200    6.3100 C   0  0  0  0  0  0  0  0  0  0  0  0
   19.8650   -2.4700    7.4700 O   0  0  0  0  0  0  0  0  0  0  0  0
   22.0660   -3.5960    5.7300 C   0  0  0  0  0  0  0  0  0  0  0  0
   22.4280   -4.8140    5.0960 O   0  0  0  0  0  0  0  0  0  0  0  0
   23.9390   -8.2090    3.5220 C   0  0  0  0  0  0  0  0  0  0  0  0
   23.5380   -6.0010    2.0020 N   0  0  0  0  0  0  0  0  0  0  0  0
   23.6150   -6.9540    4.1150 O   0  0  0  0  0  0  0  0  0  0  0  0
   21.2780   -8.7680    0.5030 S   0  0  0  0  0  0  0  0  0  0  0  0
   23.9570   -5.8250    3.4050 C   0  0  1  0  0  0  0  0  0  0  0  0
   21.3130   -5.5900    2.4080 O   0  0  0  0  0  0  0  0  0  0  0  0
   26.2850   -5.8380    4.8340 S   0  0  0  0  0  0  0  0  0  0  0  0
   22.1280   -5.8800    1.6090 C   0  0  0  0  0  0  0  0  0  0  0  0
   26.0800   -6.2390    2.2400 N   0  0  0  0  0  0  0  0  0  0  0  0
   21.7360   -6.0790    0.1390 C   0  0  0  0  0  0  0  0  0  0  0  0
   21.9620   -7.5880   -0.2280 C   0  0  0  0  0  0  0  0  0  0  0  0
   23.4150   -3.5500    3.5030 O   0  0  0  0  0  0  0  0  0  0  0  0
   22.8400   -8.1490   -1.2580 C   0  0  0  0  0  0  0  0  0  0  0  0
   27.4870   -7.9720    0.3280 O   0  0  0  0  0  0  0  0  0  0  0  0
   22.7080   -9.7520   -1.2110 C   0  0  0  0  0  0  0  0  0  0  0  0
   29.4450   -6.9750    0.6740 O   0  5  0  0  0  0  0  0  0  0  0  0
   21.7770  -10.0980   -0.1640 C   0  0  0  0  0  0  0  0  0  0  0  0
   25.5200   -5.4920    3.3610 C   0  0  1  0  0  0  0  0  0  0  0  0
   27.8740   -5.3000    4.6930 C   0  0  0  0  0  0  0  0  0  0  0  0
   28.6630   -5.9780    3.5380 C   0  0  0  0  0  0  0  0  0  0  0  0
   30.0000   -5.9320    3.4520 C   0  0  0  0  0  0  0  0  0  0  0  0
   27.6380   -6.5100    2.2190 C   0  0  0  0  0  0  0  0  0  0  0  0
   23.2980   -4.6180    4.0490 C   0  0  0  0  0  0  0  0  0  0  0  0
   28.2230   -7.1980    1.0060 C   0  0  0  0  0  0  0  0  0  0  0  0
  2  1  1  6  0  0  0
  2  5  1  0  0  0  0
  2  3  1  0  0  0  0
  3  4  2  0  0  0  0
  6  5  1  0  0  0  0
  7  9  1  0  0  0  0
  8 14  1  0  0  0  0
  9 11  1  0  0  0  0
 10 17  1  0  0  0  0
 10 23  1  0  0  0  0
 11  8  1  6  0  0  0
 11 29  1  0  0  0  0
 12 14  2  0  0  0  0
 13 24  1  0  0  0  0
 13 25  1  0  0  0  0
 14 16  1  0  0  0  0
 15 24  1  0  0  0  0
 15 28  2  0  0  0  0
 16 17  1  0  0  0  0
 17 19  2  0  0  0  0
 18 29  2  0  0  0  0
 19 21  1  0  0  0  0
 20 30  2  0  0  0  0
 21 23  2  0  0  0  0
 22 30  1  0  0  0  0
 24 11  1  1  0  0  0
 25 26  1  0  0  0  0
 26 27  2  0  0  0  0
 26 28  1  0  0  0  0
 28 30  1  0  0  0  0
 29  6  1  0  0  0  0
M  CHG  1  22  -1
M  END
>  <HEADER>
    HYDROLASE                               20-JUN-19   6KA5              

>  <TITLE>
    CRYSTAL STRUCTURE OF A CLASS C BETA-LACTAMASE IN COMPLEX WITH         
   2 CEFOXITIN                                                            

>  <COMPND>
    MOL_ID: 1;                                                            
   2 MOLECULE: BETA-LACTAMASE;                                            
   3 CHAIN: A;                                                            
   4 EC: 3.5.2.6;                                                         
   5 ENGINEERED: YES                                                      

>  <SOURCE>
    MOL_ID: 1;                                                            
   2 ORGANISM_SCIENTIFIC: KLEBSIELLA PNEUMONIAE;                          
   3 ORGANISM_TAXID: 573;                                                 
   4 GENE: BLA-ACC-1, ACC-1;                                              
   5 EXPRESSION_SYSTEM: ESCHERICHIA COLI;                                 
   6 EXPRESSION_SYSTEM_TAXID: 562                                         

>  <KEYWDS>
    CLASS C-LACTAMASE, ACYL-ENZYME COMPLEX, HYDROLASE                     

>  <EXPDTA>
    X-RAY DIFFRACTION                                                     

>  <AUTHOR>
    D.W.BAE,Y.E.JUNG,Y.J.AN,J.H.NA,S.S.CHA                                

>  <REVDAT>
   3   12-OCT-22 6KA5    1       COMPND REMARK SITE   CRYST1              
   3 2                   1       ATOM                                     
   2   06-NOV-19 6KA5    1       JRNL                                     
   1   16-OCT-19 6KA5    0                                                

>  <JRNL>
      AUTH   D.W.BAE,Y.E.JUNG,Y.J.AN,J.H.NA,S.S.CHA                       
      TITL   STRUCTURAL INSIGHTS INTO CATALYTIC RELEVANCES OF SUBSTRATE   
      TITL 2 POSES IN ACC-1.                                              
      REF    ANTIMICROB.AGENTS CHEMOTHER.  V.  63       2019              
      REFN                   ESSN 1098-6596                               
      PMID   31451494                                                     
      DOI    10.1128/AAC.01411-19                                         

>  <REMARK>
   2                                                                      
   2 RESOLUTION.    1.59 ANGSTROMS.                                       
   3                                                                      
   3 REFINEMENT.                                                          
   3   PROGRAM     : PHENIX 1.17.1_3660                                   
   3   AUTHORS     : PAUL ADAMS,PAVEL AFONINE,VINCENT CHEN,IAN            
   3               : DAVIS,KRESHNA GOPAL,RALF GROSSE-KUNSTLEVE,           
   3               : LI-WEI HUNG,ROBERT IMMORMINO,TOM IOERGER,            
   3               : AIRLIE MCCOY,ERIK MCKEE,NIGEL MORIARTY,              
   3               : REETAL PAI,RANDY READ,JANE RICHARDSON,               
   3               : DAVID RICHARDSON,TOD ROMO,JIM SACCHETTINI,           
   3               : NICHOLAS SAUTER,JACOB SMITH,LAURENT                  
   3               : STORONI,TOM TERWILLIGER,PETER ZWART                  
   3                                                                      
   3    REFINEMENT TARGET : GEOSTD + MONOMER LIBRARY + CDL V1.2           
   3                                                                      
   3  DATA USED IN REFINEMENT.                                            
   3   RESOLUTION RANGE HIGH (ANGSTROMS) : 1.59                           
   3   RESOLUTION RANGE LOW  (ANGSTROMS) : 41.21                          
   3   MIN(FOBS/SIGMA_FOBS)              : 1.530                          
   3   COMPLETENESS FOR RANGE        (%) : 92.6                           
   3   NUMBER OF REFLECTIONS             : 51788                          
   3                                                                      
   3  FIT TO DATA USED IN REFINEMENT.                                     
   3   R VALUE     (WORKING + TEST SET) : 0.160                           
   3   R VALUE            (WORKING SET) : 0.159                           
   3   FREE R VALUE                     : 0.191                           
   3   FREE R VALUE TEST SET SIZE   (%) : 3.850                           
   3   FREE R VALUE TEST SET COUNT      : 1995                            
   3                                                                      
   3  FIT TO DATA USED IN REFINEMENT (IN BINS).                           
   3   BIN  RESOLUTION RANGE  COMPL.    NWORK NFREE   RWORK  RFREE        
   3     1 41.2100 -  3.8300    0.92     3616   142  0.1459 0.1727        
   3     2  3.8300 -  3.0400    0.80     3059   133  0.1534 0.1806        
   3     3  3.0400 -  2.6600    0.99     3858   155  0.1624 0.1728        
   3     4  2.6600 -  2.4100    0.99     3788   150  0.1599 0.1922        
   3     5  2.4100 -  2.2700    0.96     3007   123  0.1581 0.1962        
   3     6  2.2300 -  2.1100    0.95     3489   137  0.1536 0.2006        
   3     7  2.1100 -  2.0000    0.99     3795   142  0.1559 0.1775        
   3     8  2.0000 -  1.9300    0.94     3065   133  0.1562 0.1999        
   3     9  1.9100 -  1.8400    0.96     3282   124  0.1547 0.2051        
   3    10  1.8400 -  1.7800    1.00     3819   141  0.1557 0.2125        
   3    11  1.7800 -  1.7200    0.98     3731   161  0.1681 0.1976        
   3    12  1.7200 -  1.6700    0.98     3801   146  0.1794 0.2021        
   3    13  1.6700 -  1.6300    0.99     3761   153  0.1759 0.2208        
   3    14  1.6300 -  1.5900    0.98     3722   155  0.2069 0.2717        
   3                                                                      
   3  BULK SOLVENT MODELLING.                                             
   3   METHOD USED        : FLAT BULK SOLVENT MODEL                       
   3   SOLVENT RADIUS     : 1.11                                          
   3   SHRINKAGE RADIUS   : 0.90                                          
   3   K_SOL              : NULL                                          
   3   B_SOL              : NULL                                          
   3                                                                      
   3  ERROR ESTIMATES.                                                    
   3   COORDINATE ERROR (MAXIMUM-LIKELIHOOD BASED)     : 0.152            
   3   PHASE ERROR (DEGREES, MAXIMUM-LIKELIHOOD BASED) : 17.944           
   3                                                                      
   3  B VALUES.                                                           
   3   FROM WILSON PLOT           (A**2) : 10.54                          
   3   MEAN B VALUE      (OVERALL, A**2) : 14.69                          
   3   OVERALL ANISOTROPIC B VALUE.                                       
   3    B11 (A**2) : NULL                                                 
   3    B22 (A**2) : NULL                                                 
   3    B33 (A**2) : NULL                                                 
   3    B12 (A**2) : NULL                                                 
   3    B13 (A**2) : NULL                                                 
   3    B23 (A**2) : NULL                                                 
   3                                                                      
   3  TWINNING INFORMATION.                                               
   3   FRACTION: NULL                                                     
   3   OPERATOR: NULL                                                     
   3                                                                      
   3  DEVIATIONS FROM IDEAL VALUES.                                       
   3                 RMSD          COUNT                                  
   3   BOND      :  0.009           2801                                  
   3   ANGLE     :  1.063           3809                                  
   3   CHIRALITY :  0.066            436                                  
   3   PLANARITY :  0.007            483                                  
   3   DIHEDRAL  : 17.037           1032                                  
   3                                                                      
   3  TLS DETAILS                                                         
   3   NUMBER OF TLS GROUPS  : NULL                                       
   3                                                                      
   3  NCS DETAILS                                                         
   3   NUMBER OF NCS GROUPS : NULL                                        
   3                                                                      
   3  OTHER REFINEMENT REMARKS: NULL                                      
   4                                                                      
   4 6KA5 COMPLIES WITH FORMAT V. 3.30, 13-JUL-11                         
 100                                                                      
 100 THIS ENTRY HAS BEEN PROCESSED BY PDBJ ON 21-JUN-19.                  
 100 THE DEPOSITION ID IS D_1300012559.                                   
 200                                                                      
 200 EXPERIMENTAL DETAILS                                                 
 200  EXPERIMENT TYPE                : X-RAY DIFFRACTION                  
 200  DATE OF DATA COLLECTION        : 28-SEP-16                          
 200  TEMPERATURE           (KELVIN) : 100                                
 200  PH                             : NULL                               
 200  NUMBER OF CRYSTALS USED        : 1                                  
 200                                                                      
 200  SYNCHROTRON              (Y/N) : Y                                  
 200  RADIATION SOURCE               : PAL/PLS                            
 200  BEAMLINE                       : 5C (4A)                            
 200  X-RAY GENERATOR MODEL          : NULL                               
 200  MONOCHROMATIC OR LAUE    (M/L) : M                                  
 200  WAVELENGTH OR RANGE        (A) : 1.00                               
 200  MONOCHROMATOR                  : NULL                               
 200  OPTICS                         : NULL                               
 200                                                                      
 200  DETECTOR TYPE                  : CCD                                
 200  DETECTOR MANUFACTURER          : ADSC QUANTUM 315R                  
 200  INTENSITY-INTEGRATION SOFTWARE : HKL-2000                           
 200  DATA SCALING SOFTWARE          : HKL-2000                           
 200                                                                      
 200  NUMBER OF UNIQUE REFLECTIONS   : 52020                              
 200  RESOLUTION RANGE HIGH      (A) : 1.586                              
 200  RESOLUTION RANGE LOW       (A) : 50.000                             
 200  REJECTION CRITERIA  (SIGMA(I)) : NULL                               
 200                                                                      
 200 OVERALL.                                                             
 200  COMPLETENESS FOR RANGE     (%) : 92.6                               
 200  DATA REDUNDANCY                : 4.900                              
 200  R MERGE                    (I) : 0.07000                            
 200  R SYM                      (I) : NULL                               
 200  <I/SIGMA(I)> FOR THE DATA SET  : 20.2000                            
 200                                                                      
 200 IN THE HIGHEST RESOLUTION SHELL.                                     
 200  HIGHEST RESOLUTION SHELL, RANGE HIGH (A) : 1.59                     
 200  HIGHEST RESOLUTION SHELL, RANGE LOW  (A) : 1.62                     
 200  COMPLETENESS FOR SHELL     (%) : 95.7                               
 200  DATA REDUNDANCY IN SHELL       : 4.20                               
 200  R MERGE FOR SHELL          (I) : 0.21300                            
 200  R SYM FOR SHELL            (I) : NULL                               
 200  <I/SIGMA(I)> FOR SHELL         : NULL                               
 200                                                                      
 200 DIFFRACTION PROTOCOL: SINGLE WAVELENGTH                              
 200 METHOD USED TO DETERMINE THE STRUCTURE: MOLECULAR REPLACEMENT        
 200 SOFTWARE USED: MOLREP                                                
 200 STARTING MODEL: 3IXH                                                 
 200                                                                      
 200 REMARK: NULL                                                         
 280                                                                      
 280 CRYSTAL                                                              
 280 SOLVENT CONTENT, VS   (%): 52.40                                     
 280 MATTHEWS COEFFICIENT, VM (ANGSTROMS**3/DA): 2.58                     
 280                                                                      
 280 CRYSTALLIZATION CONDITIONS: 0.1M SODIUM CACODYLATE PH 5.5 0.2M       
 280  SODIUM CHLORIDE 35% POLYETHYLENE GLYCOL 400, MICROBATCH,            
 280  TEMPERATURE 295K                                                    
 290                                                                      
 290 CRYSTALLOGRAPHIC SYMMETRY                                            
 290 SYMMETRY OPERATORS FOR SPACE GROUP: C 1 2 1                          
 290                                                                      
 290      SYMOP   SYMMETRY                                                
 290     NNNMMM   OPERATOR                                                
 290       1555   X,Y,Z                                                   
 290       2555   -X,Y,-Z                                                 
 290       3555   X+1/2,Y+1/2,Z                                           
 290       4555   -X+1/2,Y+1/2,-Z                                         
 290                                                                      
 290     WHERE NNN -> OPERATOR NUMBER                                     
 290           MMM -> TRANSLATION VECTOR                                  
 290                                                                      
 290 CRYSTALLOGRAPHIC SYMMETRY TRANSFORMATIONS                            
 290 THE FOLLOWING TRANSFORMATIONS OPERATE ON THE ATOM/HETATM             
 290 RECORDS IN THIS ENTRY TO PRODUCE CRYSTALLOGRAPHICALLY                
 290 RELATED MOLECULES.                                                   
 290   SMTRY1   1  1.000000  0.000000  0.000000        0.00000            
 290   SMTRY2   1  0.000000  1.000000  0.000000        0.00000            
 290   SMTRY3   1  0.000000  0.000000  1.000000        0.00000            
 290   SMTRY1   2 -1.000000  0.000000  0.000000        0.00000            
 290   SMTRY2   2  0.000000  1.000000  0.000000        0.00000            
 290   SMTRY3   2  0.000000  0.000000 -1.000000        0.00000            
 290   SMTRY1   3  1.000000  0.000000  0.000000       66.54600            
 290   SMTRY2   3  0.000000  1.000000  0.000000       30.17000            
 290   SMTRY3   3  0.000000  0.000000  1.000000        0.00000            
 290   SMTRY1   4 -1.000000  0.000000  0.000000       66.54600            
 290   SMTRY2   4  0.000000  1.000000  0.000000       30.17000            
 290   SMTRY3   4  0.000000  0.000000 -1.000000        0.00000            
 290                                                                      
 290 REMARK: NULL                                                         
 300                                                                      
 300 BIOMOLECULE: 1                                                       
 300 SEE REMARK 350 FOR THE AUTHOR PROVIDED AND/OR PROGRAM                
 300 GENERATED ASSEMBLY INFORMATION FOR THE STRUCTURE IN                  
 300 THIS ENTRY. THE REMARK MAY ALSO PROVIDE INFORMATION ON               
 300 BURIED SURFACE AREA.                                                 
 350                                                                      
 350 COORDINATES FOR A COMPLETE MULTIMER REPRESENTING THE KNOWN           
 350 BIOLOGICALLY SIGNIFICANT OLIGOMERIZATION STATE OF THE                
 350 MOLECULE CAN BE GENERATED BY APPLYING BIOMT TRANSFORMATIONS          
 350 GIVEN BELOW.  BOTH NON-CRYSTALLOGRAPHIC AND                          
 350 CRYSTALLOGRAPHIC OPERATIONS ARE GIVEN.                               
 350                                                                      
 350 BIOMOLECULE: 1                                                       
 350 AUTHOR DETERMINED BIOLOGICAL UNIT: MONOMERIC                         
 350 APPLY THE FOLLOWING TO CHAINS: A                                     
 350   BIOMT1   1  1.000000  0.000000  0.000000        0.00000            
 350   BIOMT2   1  0.000000  1.000000  0.000000        0.00000            
 350   BIOMT3   1  0.000000  0.000000  1.000000        0.00000            
 465                                                                      
 465 MISSING RESIDUES                                                     
 465 THE FOLLOWING RESIDUES WERE NOT LOCATED IN THE                       
 465 EXPERIMENT. (M=MODEL NUMBER; RES=RESIDUE NAME; C=CHAIN               
 465 IDENTIFIER; SSSEQ=SEQUENCE NUMBER; I=INSERTION CODE.)                
 465                                                                      
 465   M RES C SSSEQI                                                     
 465     MET A    -6                                                      
 465     HIS A    -5                                                      
 465     HIS A    -4                                                      
 465     HIS A    -3                                                      
 465     HIS A    -2                                                      
 465     HIS A    -1                                                      
 465     HIS A     0                                                      
 465     ALA A     1                                                      
 465     ASN A     2                                                      
 465     ASP A   244                                                      
 465     ALA A   245                                                      
 465     ASN A   246                                                      
 465     GLU A   360                                                      
 465     GLY A   361                                                      
 465     ASN A   362                                                      
 465     LYS A   363                                                      
 470                                                                      
 470 MISSING ATOM                                                         
 470 THE FOLLOWING RESIDUES HAVE MISSING ATOMS (M=MODEL NUMBER;           
 470 RES=RESIDUE NAME; C=CHAIN IDENTIFIER; SSEQ=SEQUENCE NUMBER;          
 470 I=INSERTION CODE):                                                   
 470   M RES CSSEQI  ATOMS                                                
 470     GLN A  49    CG   CD   OE1  NE2                                  
 470     LYS A 242    CG   CD   CE   NZ                                   
 500                                                                      
 500 GEOMETRY AND STEREOCHEMISTRY                                         
 500 SUBTOPIC: CLOSE CONTACTS IN SAME ASYMMETRIC UNIT                     
 500                                                                      
 500 THE FOLLOWING ATOMS ARE IN CLOSE CONTACT.                            
 500                                                                      
 500  ATM1  RES C  SSEQI   ATM2  RES C  SSEQI           DISTANCE          
 500   OG   SER A    64     C14  1S7 A   401              1.37            
 500   O    HOH A   510     O    HOH A   616              2.16            
 500   O    HOH A   921     O    HOH A   942              2.17            
 500   O    HOH A   511     O    HOH A   809              2.17            
 500                                                                      
 500 REMARK: NULL                                                         
 500                                                                      
 500 GEOMETRY AND STEREOCHEMISTRY                                         
 500 SUBTOPIC: TORSION ANGLES                                             
 500                                                                      
 500 TORSION ANGLES OUTSIDE THE EXPECTED RAMACHANDRAN REGIONS:            
 500 (M=MODEL NUMBER; RES=RESIDUE NAME; C=CHAIN IDENTIFIER;               
 500 SSEQ=SEQUENCE NUMBER; I=INSERTION CODE).                             
 500                                                                      
 500 STANDARD TABLE:                                                      
 500 FORMAT:(10X,I3,1X,A3,1X,A1,I4,A1,4X,F7.2,3X,F7.2)                    
 500                                                                      
 500 EXPECTED VALUES: GJ KLEYWEGT AND TA JONES (1996). PHI/PSI-           
 500 CHOLOGY: RAMACHANDRAN REVISITED. STRUCTURE 4, 1395 - 1400            
 500                                                                      
 500  M RES CSSEQI        PSI       PHI                                   
 500    MET A 183       78.57   -100.36                                   
 500    TYR A 221       22.77   -151.04                                   
 500    ASP A 269     -156.98    -96.52                                   
 500    MET A 271      -46.98     64.20                                   
 500                                                                      
 500 REMARK: NULL                                                         
 525                                                                      
 525 SOLVENT                                                              
 525                                                                      
 525 THE SOLVENT MOLECULES HAVE CHAIN IDENTIFIERS THAT                    
 525 INDICATE THE POLYMER CHAIN WITH WHICH THEY ARE MOST                  
 525 CLOSELY ASSOCIATED. THE REMARK LISTS ALL THE SOLVENT                 
 525 MOLECULES WHICH ARE MORE THAN 5A AWAY FROM THE                       
 525 NEAREST POLYMER CHAIN (M = MODEL NUMBER;                             
 525 RES=RESIDUE NAME; C=CHAIN IDENTIFIER; SSEQ=SEQUENCE                  
 525 NUMBER; I=INSERTION CODE):                                           
 525                                                                      
 525  M RES CSSEQI                                                        
 525    HOH A 947        DISTANCE =  5.94 ANGSTROMS                       
 525    HOH A 948        DISTANCE =  6.81 ANGSTROMS                       
 525    HOH A 949        DISTANCE =  8.23 ANGSTROMS                       

>  <DBREF>
 6KA5 A    1   363  UNP    Q9XB24   Q9XB24_KLEPN    24    386             

>  <SEQADV>
 6KA5 MET A   -6  UNP  Q9XB24              INITIATING METHIONINE          
 6KA5 HIS A   -5  UNP  Q9XB24              EXPRESSION TAG                 
 6KA5 HIS A   -4  UNP  Q9XB24              EXPRESSION TAG                 
 6KA5 HIS A   -3  UNP  Q9XB24              EXPRESSION TAG                 
 6KA5 HIS A   -2  UNP  Q9XB24              EXPRESSION TAG                 
 6KA5 HIS A   -1  UNP  Q9XB24              EXPRESSION TAG                 
 6KA5 HIS A    0  UNP  Q9XB24              EXPRESSION TAG                 

>  <SEQRES>
   1 A  370  MET HIS HIS HIS HIS HIS HIS ALA ASN ILE ASP GLU SER          
   2 A  370  LYS ILE LYS ASP THR VAL ASP ASP LEU ILE GLN PRO LEU          
   3 A  370  MET GLN LYS ASN ASN ILE PRO GLY MET SER VAL ALA VAL          
   4 A  370  THR VAL ASN GLY LYS ASN TYR ILE TYR ASN TYR GLY LEU          
   5 A  370  ALA ALA LYS GLN PRO GLN GLN PRO VAL THR GLU ASN THR          
   6 A  370  LEU PHE GLU VAL GLY SER LEU SER LYS THR PHE ALA ALA          
   7 A  370  THR LEU ALA SER TYR ALA GLN VAL SER GLY LYS LEU SER          
   8 A  370  LEU ASP GLN SER VAL SER HIS TYR VAL PRO GLU LEU ARG          
   9 A  370  GLY SER SER PHE ASP HIS VAL SER VAL LEU ASN VAL GLY          
  10 A  370  THR HIS THR SER GLY LEU GLN LEU PHE MET PRO GLU ASP          
  11 A  370  ILE LYS ASN THR THR GLN LEU MET ALA TYR LEU LYS ALA          
  12 A  370  TRP LYS PRO ALA ASP ALA ALA GLY THR HIS ARG VAL TYR          
  13 A  370  SER ASN ILE GLY THR GLY LEU LEU GLY MET ILE ALA ALA          
  14 A  370  LYS SER LEU GLY VAL SER TYR GLU ASP ALA ILE GLU LYS          
  15 A  370  THR LEU LEU PRO GLN LEU GLY MET HIS HIS SER TYR LEU          
  16 A  370  LYS VAL PRO ALA ASP GLN MET GLU ASN TYR ALA TRP GLY          
  17 A  370  TYR ASN LYS LYS ASP GLU PRO VAL HIS VAL ASN MET GLU          
  18 A  370  ILE LEU GLY ASN GLU ALA TYR GLY ILE LYS THR THR SER          
  19 A  370  SER ASP LEU LEU ARG TYR VAL GLN ALA ASN MET GLY GLN          
  20 A  370  LEU LYS LEU ASP ALA ASN ALA LYS MET GLN GLN ALA LEU          
  21 A  370  THR ALA THR HIS THR GLY TYR PHE LYS SER GLY GLU ILE          
  22 A  370  THR GLN ASP LEU MET TRP GLU GLN LEU PRO TYR PRO VAL          
  23 A  370  SER LEU PRO ASN LEU LEU THR GLY ASN ASP MET ALA MET          
  24 A  370  THR LYS SER VAL ALA THR PRO ILE VAL PRO PRO LEU PRO          
  25 A  370  PRO GLN GLU ASN VAL TRP ILE ASN LYS THR GLY SER THR          
  26 A  370  ASN GLY PHE GLY ALA TYR ILE ALA PHE VAL PRO ALA LYS          
  27 A  370  LYS MET GLY ILE VAL MET LEU ALA ASN LYS ASN TYR SER          
  28 A  370  ILE ASP GLN ARG VAL THR VAL ALA TYR LYS ILE LEU SER          
  29 A  370  SER LEU GLU GLY ASN LYS                                      

>  <HET>
 1S7  A 401      24                                                       

>  <HETNAM>
     1S7 (2R)-2-{(1S)-1-METHOXY-2-OXO-1-[(THIOPHEN-2-YLACETYL)            
   2 1S7  AMINO]ETHYL}-5-METHYLIDENE-5,6-DIHYDRO-2H-1,3-                  
   3 1S7  THIAZINE-4-CARBOXYLIC ACID                                      

>  <HETSYN>
     1S7 CEFOXITIN, BOUND FORM                                            

>  <FORMUL>
   2  1S7    C15 H16 N2 O5 S2                                             
   3  HOH   *449(H2 O)                                                    

>  <HELIX>
   1 AA1 ILE A    3  ASN A   24  1                                  22    
   2 AA2 GLY A   63  LEU A   65  5                                   3    
   3 AA3 SER A   66  SER A   80  1                                  15    
   4 AA4 SER A   88  VAL A   93  1                                   6    
   5 AA5 PRO A   94  ARG A   97  5                                   4    
   6 AA6 SER A   99  VAL A  104  5                                   6    
   7 AA7 SER A  105  THR A  111  1                                   7    
   8 AA8 ASN A  126  TRP A  137  1                                  12    
   9 AA9 SER A  150  LEU A  165  1                                  16    
  10 AB1 SER A  168  THR A  176  1                                   9    
  11 AB2 THR A  176  LEU A  181  1                                   6    
  12 AB3 PRO A  191  TYR A  198  5                                   8    
  13 AB4 LEU A  216  GLY A  222  1                                   7    
  14 AB5 THR A  226  MET A  238  1                                  13    
  15 AB6 LYS A  248  THR A  256  1                                   9    
  16 AB7 SER A  280  ASN A  288  1                                   9    
  17 AB8 PRO A  329  LYS A  332  5                                   4    
  18 AB9 SER A  344  LEU A  359  1                                  16    

>  <SHEET>
   1 AA110 GLN A  52  PRO A  53  0                                        
   2 AA110 LYS A  37  ALA A  47 -1  N  ALA A  46   O  GLN A  52           
   3 AA110 GLY A  27  VAL A  34 -1  N  VAL A  30   O  TYR A  41           
   4 AA110 MET A 333  ALA A 339 -1  O  LEU A 338   N  SER A  29           
   5 AA110 GLY A 322  VAL A 328 -1  N  ALA A 326   O  ILE A 335           
   6 AA110 VAL A 310  SER A 317 -1  N  GLY A 316   O  ALA A 323           
   7 AA110 GLU A 273  PRO A 276 -1  N  GLU A 273   O  ASN A 313           
   8 AA110 ILE A 266  GLN A 268 -1  N  THR A 267   O  GLN A 274           
   9 AA110 GLY A 259  SER A 263 -1  N  PHE A 261   O  GLN A 268           
  10 AA110 THR A 298  LEU A 304 -1  O  THR A 298   N  LYS A 262           
   1 AA2 3 PHE A  60  GLU A  61  0                                        
   2 AA2 3 LYS A 224  THR A 225 -1  O  THR A 225   N  PHE A  60           
   3 AA2 3 SER A 186  TYR A 187 -1  N  TYR A 187   O  LYS A 224           
   1 AA3 2 HIS A 146  ARG A 147  0                                        
   2 AA3 2 SER A 295  VAL A 296 -1  O  SER A 295   N  ARG A 147           
   1 AA4 2 GLY A 201  TYR A 202  0                                        
   2 AA4 2 PRO A 208  VAL A 209 -1  O  VAL A 209   N  GLY A 201           

>  <CISPEP>
   1 GLN A   49    PRO A   50          0        -7.42                     
   2 TYR A  277    PRO A  278          0         4.69                     
   3 VAL A  301    PRO A  302          0        -2.81                     

>  <ORIGX1>
      1.000000  0.000000  0.000000        0.00000                         

>  <ORIGX2>
      0.000000  1.000000  0.000000        0.00000                         

>  <ORIGX3>
      0.000000  0.000000  1.000000        0.00000                         

>  <SCALE1>
      0.007514  0.000000  0.003025        0.00000                         

>  <SCALE2>
      0.000000  0.016573  0.000000        0.00000                         

>  <SCALE3>
      0.000000  0.000000  0.019083        0.00000                         

>  <MASTER>
      281    0    1   18   17    0    0    6 3191    1   24   29          

$$$$
