start_structures/Ligand_Substrate/Ligand_Complex_Stripped/2AW_4MBF.pdb
 OpenBabel08222315203D

 42 46  0  0  1  0  0  0  0  0999 V2000
    8.5600   32.7080    8.5970 N   0  0  0  0  0  0  0  0  0  0  0  0
    8.0490   31.5700    7.8340 C   0  0  2  0  0  0  0  0  0  0  0  0
    8.5290   30.2270    8.3320 C   0  0  0  0  0  0  0  0  0  0  0  0
    8.0520   29.2070    7.8370 O   0  0  0  0  0  0  0  0  0  0  0  0
    8.4200   31.6610    6.3640 C   0  0  0  0  0  0  0  0  0  0  0  0
    7.7390   32.7470    5.7540 O   0  0  0  0  0  0  0  0  0  0  0  0
   13.7680   33.0550    3.1290 O   0  0  0  0  0  0  0  0  0  0  0  0
   10.3330   31.8570    3.7460 O   0  0  0  0  0  0  0  0  0  0  0  0
   12.8370   33.8380    2.8850 C   0  0  0  0  0  0  0  0  0  0  0  0
   11.1080   32.8110    3.5230 C   0  0  0  0  0  0  0  0  0  0  0  0
   12.9960   35.0070    2.4620 O   0  0  0  0  0  0  0  0  0  0  0  0
   12.3480   32.8080    3.6840 O   0  0  0  0  0  0  0  0  0  0  0  0
   11.4150   33.3140    3.1860 C   0  0  2  0  0  0  0  0  0  0  0  0
   10.4750   34.1080    3.0110 C   0  0  2  0  0  0  0  0  0  0  0  0
   10.3130   33.9590    2.3170 C   0  0  1  0  0  0  0  0  0  0  0  0
   11.1490   34.5040    1.6950 C   0  0  0  0  0  0  0  0  0  0  0  0
   10.5440   33.6700    0.8270 C   0  0  0  0  0  0  0  0  0  0  0  0
   10.5580   33.6790    0.5510 C   0  0  0  0  0  0  0  0  0  0  0  0
    9.3910   34.2230   -0.0230 C   0  0  2  0  0  0  0  0  0  0  0  0
    9.7020   34.5960   -0.3190 C   0  0  1  0  0  0  0  0  0  0  0  0
    9.3790   35.7510   -0.0310 C   0  0  1  0  0  0  0  0  0  0  0  0
    9.6690   35.9820    0.3230 C   0  0  2  0  0  0  0  0  0  0  0  0
   10.1760   36.3710   -0.7360 O   0  0  0  0  0  0  0  0  0  0  0  0
   10.6630   36.7090    0.3170 O   0  0  0  0  0  0  0  0  0  0  0  0
    8.4390   36.3000    0.7990 O   0  0  0  0  0  0  0  0  0  0  0  0
    8.4880   36.3190    0.8980 O   0  0  0  0  0  0  0  0  0  0  0  0
    8.4940   37.7140    1.0430 C   0  0  0  0  0  0  0  0  0  0  0  0
    8.4880   37.7320    1.0600 C   0  0  0  0  0  0  0  0  0  0  0  0
    7.3130   38.1690    1.9240 C   0  0  0  0  0  0  0  0  0  0  0  0
    6.0090   38.1270    1.1180 C   0  0  0  0  0  0  0  0  0  0  0  0
    7.6150   40.0120    2.4520 S   0  0  0  0  0  0  0  0  0  0  0  0
    8.1790   40.7000    1.2170 O   0  0  0  0  0  0  0  0  0  0  0  0
    8.7010   40.0450    3.5270 O   0  0  0  0  0  0  0  0  0  0  0  0
    7.1960   37.2800    3.1840 C   0  0  2  0  0  0  0  0  0  0  0  0
    6.0410   37.7640    4.0760 C   0  0  0  0  0  0  0  0  0  0  0  0
    6.2530   38.7500    4.8270 O   0  0  0  0  0  0  0  0  0  0  0  0
    4.9640   37.1380    4.0000 O   0  0  0  0  0  0  0  0  0  0  0  0
    8.4470   37.3520    3.9570 N   0  0  0  0  0  0  0  0  0  0  0  0
    8.7950   36.3610    4.7670 C   0  0  0  0  0  0  0  0  0  0  0  0
    7.9530   35.1230    4.8110 C   0  0  0  0  0  0  0  0  0  0  0  0
    8.5190   34.0630    5.7330 C   0  0  0  0  0  0  0  0  0  0  0  0
    9.5240   34.2010    6.4190 O   0  0  0  0  0  0  0  0  0  0  0  0
  2  3  1  0  0  0  0
  2  1  1  1  0  0  0
  4  3  2  0  0  0  0
  5  2  1  0  0  0  0
  6 41  1  0  0  0  0
  6  5  1  0  0  0  0
  7  9  2  0  0  0  0
  8 10  1  0  0  0  0
  9 11  1  0  0  0  0
 10 12  1  0  0  0  0
 10 14  1  0  0  0  0
 13  9  1  6  0  0  0
 13 15  1  0  0  0  0
 13 10  1  0  0  0  0
 14 16  1  6  0  0  0
 15 17  1  6  0  0  0
 15 14  1  0  0  0  0
 16 18  1  0  0  0  0
 19 17  1  1  0  0  0
 19 21  1  0  0  0  0
 20 18  1  1  0  0  0
 20 22  1  0  0  0  0
 20 19  1  0  0  0  0
 21 23  1  6  0  0  0
 21 25  1  0  0  0  0
 21 22  1  0  0  0  0
 22 24  1  6  0  0  0
 22 26  1  0  0  0  0
 23 24  1  0  0  0  0
 25 27  1  0  0  0  0
 26 28  1  0  0  0  0
 27 29  1  0  0  0  0
 28 29  1  0  0  0  0
 29 30  1  0  0  0  0
 29 31  1  0  0  0  0
 29 34  1  0  0  0  0
 31 32  1  0  0  0  0
 31 33  1  0  0  0  0
 34 35  1  1  0  0  0
 34 38  1  0  0  0  0
 35 36  2  0  0  0  0
 35 37  1  0  0  0  0
 38 39  2  0  0  0  0
 39 40  1  0  0  0  0
 40 41  1  0  0  0  0
 41 42  2  0  0  0  0
M  END
>  <HEADER>
    HYDROLASE/HYDROLASE INHIBITOR           19-AUG-13   4MBF              

>  <TITLE>
    CRYSTAL STRUCTURE OF PENAM SULFONE PSR-4-157 BOUND TO SHV-1 BETA-     
   2 LACTAMASE                                                            

>  <COMPND>
    MOL_ID: 1;                                                            
   2 MOLECULE: BETA-LACTAMASE SHV-1;                                      
   3 CHAIN: A;                                                            
   4 FRAGMENT: UNP RESIDUES 22-286;                                       
   5 SYNONYM: PIT-2;                                                      
   6 EC: 3.5.2.6;                                                         
   7 ENGINEERED: YES                                                      

>  <SOURCE>
    MOL_ID: 1;                                                            
   2 ORGANISM_SCIENTIFIC: KLEBSIELLA PNEUMONIAE;                          
   3 ORGANISM_TAXID: 573;                                                 
   4 GENE: BLA, SHV1;                                                     
   5 EXPRESSION_SYSTEM: ESCHERICHIA COLI;                                 
   6 EXPRESSION_SYSTEM_TAXID: 562                                         

>  <KEYWDS>
    CLASS A BETA-LACTAMASE, HYDROLASE, HYDROLASE-HYDROLASE INHIBITOR      
   2 COMPLEX                                                              

>  <EXPDTA>
    X-RAY DIFFRACTION                                                     

>  <AUTHOR>
    E.A.RODKEY,F.VAN DEN AKKER                                            

>  <REVDAT>
   1   30-JUL-14 4MBF    0                                                

>  <JRNL>
      AUTH   E.A.RODKEY,M.L.WINKLER,C.R.BETHEL,S.R.PAGADALA,J.D.BUYNAK,   
      AUTH 2 R.A.BONOMO,F.VAN DEN AKKER                                   
      TITL   PENAM SULFONES AND BETA-LACTAMASE INHIBITION: SA2-13 AND THE 
      TITL 2 IMPORTANCE OF THE C2 SIDE CHAIN LENGTH AND COMPOSITION.      
      REF    PLOS ONE                      V.   9 85892 2014              
      REFN                   ESSN 1932-6203                               
      PMID   24454944                                                     
      DOI    10.1371/JOURNAL.PONE.0085892                                 

>  <REMARK>
   2                                                                      
   2 RESOLUTION.    1.54 ANGSTROMS.                                       
   3                                                                      
   3 REFINEMENT.                                                          
   3   PROGRAM     : REFMAC 5.5.0110                                      
   3   AUTHORS     : MURSHUDOV,VAGIN,DODSON                               
   3                                                                      
   3    REFINEMENT TARGET : MAXIMUM LIKELIHOOD                            
   3                                                                      
   3  DATA USED IN REFINEMENT.                                            
   3   RESOLUTION RANGE HIGH (ANGSTROMS) : 1.54                           
   3   RESOLUTION RANGE LOW  (ANGSTROMS) : 27.71                          
   3   DATA CUTOFF            (SIGMA(F)) : NULL                           
   3   COMPLETENESS FOR RANGE        (%) : 97.1                           
   3   NUMBER OF REFLECTIONS             : 32086                          
   3                                                                      
   3  FIT TO DATA USED IN REFINEMENT.                                     
   3   CROSS-VALIDATION METHOD          : THROUGHOUT                      
   3   FREE R VALUE TEST SET SELECTION  : RANDOM                          
   3   R VALUE     (WORKING + TEST SET) : 0.168                           
   3   R VALUE            (WORKING SET) : 0.167                           
   3   FREE R VALUE                     : 0.196                           
   3   FREE R VALUE TEST SET SIZE   (%) : 5.000                           
   3   FREE R VALUE TEST SET COUNT      : 1706                            
   3                                                                      
   3  FIT IN THE HIGHEST RESOLUTION BIN.                                  
   3   TOTAL NUMBER OF BINS USED           : 20                           
   3   BIN RESOLUTION RANGE HIGH       (A) : 1.54                         
   3   BIN RESOLUTION RANGE LOW        (A) : 1.58                         
   3   REFLECTION IN BIN     (WORKING SET) : 1975                         
   3   BIN COMPLETENESS (WORKING+TEST) (%) : 81.71                        
   3   BIN R VALUE           (WORKING SET) : 0.2820                       
   3   BIN FREE R VALUE SET COUNT          : 103                          
   3   BIN FREE R VALUE                    : 0.3160                       
   3                                                                      
   3  NUMBER OF NON-HYDROGEN ATOMS USED IN REFINEMENT.                    
   3   PROTEIN ATOMS            : 2024                                    
   3   NUCLEIC ACID ATOMS       : 0                                       
   3   HETEROGEN ATOMS          : 83                                      
   3   SOLVENT ATOMS            : 170                                     
   3                                                                      
   3  B VALUES.                                                           
   3   FROM WILSON PLOT           (A**2) : NULL                           
   3   MEAN B VALUE      (OVERALL, A**2) : 18.94                          
   3   OVERALL ANISOTROPIC B VALUE.                                       
   3    B11 (A**2) : 0.00000                                              
   3    B22 (A**2) : 0.00000                                              
   3    B33 (A**2) : 0.00000                                              
   3    B12 (A**2) : 0.00000                                              
   3    B13 (A**2) : 0.00000                                              
   3    B23 (A**2) : 0.00000                                              
   3                                                                      
   3  ESTIMATED OVERALL COORDINATE ERROR.                                 
   3   ESU BASED ON R VALUE                            (A): 0.086         
   3   ESU BASED ON FREE R VALUE                       (A): 0.085         
   3   ESU BASED ON MAXIMUM LIKELIHOOD                 (A): 0.055         
   3   ESU FOR B VALUES BASED ON MAXIMUM LIKELIHOOD (A**2): 1.517         
   3                                                                      
   3 CORRELATION COEFFICIENTS.                                            
   3   CORRELATION COEFFICIENT FO-FC      : 0.971                         
   3   CORRELATION COEFFICIENT FO-FC FREE : 0.960                         
   3                                                                      
   3  RMS DEVIATIONS FROM IDEAL VALUES        COUNT    RMS    WEIGHT      
   3   BOND LENGTHS REFINED ATOMS        (A):  2259 ; 0.012 ; 0.022       
   3   BOND LENGTHS OTHERS               (A):  NULL ;  NULL ;  NULL       
   3   BOND ANGLES REFINED ATOMS   (DEGREES):  3071 ; 1.492 ; 2.011       
   3   BOND ANGLES OTHERS          (DEGREES):  NULL ;  NULL ;  NULL       
   3   TORSION ANGLES, PERIOD 1    (DEGREES):   287 ; 5.858 ; 5.000       
   3   TORSION ANGLES, PERIOD 2    (DEGREES):    94 ;36.479 ;23.298       
   3   TORSION ANGLES, PERIOD 3    (DEGREES):   382 ;13.247 ;15.000       
   3   TORSION ANGLES, PERIOD 4    (DEGREES):    24 ;18.972 ;15.000       
   3   CHIRAL-CENTER RESTRAINTS       (A**3):   354 ; 0.091 ; 0.200       
   3   GENERAL PLANES REFINED ATOMS      (A):  1689 ; 0.007 ; 0.021       
   3   GENERAL PLANES OTHERS             (A):  NULL ;  NULL ;  NULL       
   3   NON-BONDED CONTACTS REFINED ATOMS (A):  NULL ;  NULL ;  NULL       
   3   NON-BONDED CONTACTS OTHERS        (A):  NULL ;  NULL ;  NULL       
   3   NON-BONDED TORSION REFINED ATOMS  (A):  NULL ;  NULL ;  NULL       
   3   NON-BONDED TORSION OTHERS         (A):  NULL ;  NULL ;  NULL       
   3   H-BOND (X...Y) REFINED ATOMS      (A):  NULL ;  NULL ;  NULL       
   3   H-BOND (X...Y) OTHERS             (A):  NULL ;  NULL ;  NULL       
   3   POTENTIAL METAL-ION REFINED ATOMS (A):  NULL ;  NULL ;  NULL       
   3   POTENTIAL METAL-ION OTHERS        (A):  NULL ;  NULL ;  NULL       
   3   SYMMETRY VDW REFINED ATOMS        (A):  NULL ;  NULL ;  NULL       
   3   SYMMETRY VDW OTHERS               (A):  NULL ;  NULL ;  NULL       
   3   SYMMETRY H-BOND REFINED ATOMS     (A):  NULL ;  NULL ;  NULL       
   3   SYMMETRY H-BOND OTHERS            (A):  NULL ;  NULL ;  NULL       
   3   SYMMETRY METAL-ION REFINED ATOMS  (A):  NULL ;  NULL ;  NULL       
   3   SYMMETRY METAL-ION OTHERS         (A):  NULL ;  NULL ;  NULL       
   3                                                                      
   3  ISOTROPIC THERMAL FACTOR RESTRAINTS.     COUNT   RMS    WEIGHT      
   3   MAIN-CHAIN BOND REFINED ATOMS  (A**2):  1392 ; 0.750 ; 1.500       
   3   MAIN-CHAIN BOND OTHER ATOMS    (A**2):  NULL ;  NULL ;  NULL       
   3   MAIN-CHAIN ANGLE REFINED ATOMS (A**2):  2244 ; 1.329 ; 2.000       
   3   MAIN-CHAIN ANGLE OTHER ATOMS   (A**2):  NULL ;  NULL ;  NULL       
   3   SIDE-CHAIN BOND REFINED ATOMS  (A**2):   867 ; 2.304 ; 3.000       
   3   SIDE-CHAIN BOND OTHER ATOMS    (A**2):  NULL ;  NULL ;  NULL       
   3   SIDE-CHAIN ANGLE REFINED ATOMS (A**2):   827 ; 3.805 ; 4.500       
   3   SIDE-CHAIN ANGLE OTHER ATOMS   (A**2):  NULL ;  NULL ;  NULL       
   3   LONG RANGE B REFINED ATOMS     (A**2):  NULL ;  NULL ;  NULL       
   3   LONG RANGE B OTHER ATOMS       (A**2):  NULL ;  NULL ;  NULL       
   3                                                                      
   3 ANISOTROPIC THERMAL FACTOR RESTRAINTS.    COUNT   RMS   WEIGHT       
   3   RIGID-BOND RESTRAINTS          (A**2):  NULL ;  NULL ;  NULL       
   3   SPHERICITY; FREE ATOMS         (A**2):  NULL ;  NULL ;  NULL       
   3   SPHERICITY; BONDED ATOMS       (A**2):  NULL ;  NULL ;  NULL       
   3                                                                      
   3  NCS RESTRAINTS STATISTICS                                           
   3   NUMBER OF DIFFERENT NCS GROUPS : NULL                              
   3                                                                      
   3  TLS DETAILS                                                         
   3   NUMBER OF TLS GROUPS  : NULL                                       
   3                                                                      
   3  BULK SOLVENT MODELLING.                                             
   3   METHOD USED : MASK                                                 
   3   PARAMETERS FOR MASK CALCULATION                                    
   3   VDW PROBE RADIUS   : 1.40                                          
   3   ION PROBE RADIUS   : 0.80                                          
   3   SHRINKAGE RADIUS   : 0.80                                          
   3                                                                      
   3  OTHER REFINEMENT REMARKS: HYDROGENS HAVE BEEN ADDED IN THE RIDING   
   3  POSITIONS                                                           
   4                                                                      
   4 4MBF COMPLIES WITH FORMAT V. 3.30, 13-JUL-11                         
 100                                                                      
 100 THIS ENTRY HAS BEEN PROCESSED BY RCSB ON 16-SEP-13.                  
 100 THE RCSB ID CODE IS RCSB081702.                                      
 200                                                                      
 200 EXPERIMENTAL DETAILS                                                 
 200  EXPERIMENT TYPE                : X-RAY DIFFRACTION                  
 200  DATE OF DATA COLLECTION        : 17-APR-10                          
 200  TEMPERATURE           (KELVIN) : 100                                
 200  PH                             : 6.8-7.8                            
 200  NUMBER OF CRYSTALS USED        : 1                                  
 200                                                                      
 200  SYNCHROTRON              (Y/N) : Y                                  
 200  RADIATION SOURCE               : SSRL                               
 200  BEAMLINE                       : BL9-2                              
 200  X-RAY GENERATOR MODEL          : NULL                               
 200  MONOCHROMATIC OR LAUE    (M/L) : M                                  
 200  WAVELENGTH OR RANGE        (A) : 0.9795                             
 200  MONOCHROMATOR                  : DOUBLE CRYSTAL MONOCHROMATOR       
 200  OPTICS                         : RH COATED FLAT MIRROR, TOROIDAL    
 200                                   FOCUSING MIRROR                    
 200                                                                      
 200  DETECTOR TYPE                  : CCD                                
 200  DETECTOR MANUFACTURER          : MARMOSAIC 325 MM CCD               
 200  INTENSITY-INTEGRATION SOFTWARE : HKL-2000                           
 200  DATA SCALING SOFTWARE          : HKL-2000                           
 200                                                                      
 200  NUMBER OF UNIQUE REFLECTIONS   : 32086                              
 200  RESOLUTION RANGE HIGH      (A) : 1.540                              
 200  RESOLUTION RANGE LOW       (A) : 27.710                             
 200  REJECTION CRITERIA  (SIGMA(I)) : 1.000                              
 200                                                                      
 200 OVERALL.                                                             
 200  COMPLETENESS FOR RANGE     (%) : 97.1                               
 200  DATA REDUNDANCY                : 3.400                              
 200  R MERGE                    (I) : 0.05100                            
 200  R SYM                      (I) : NULL                               
 200  <I/SIGMA(I)> FOR THE DATA SET  : 20.8000                            
 200                                                                      
 200 IN THE HIGHEST RESOLUTION SHELL.                                     
 200  HIGHEST RESOLUTION SHELL, RANGE HIGH (A) : 1.54                     
 200  HIGHEST RESOLUTION SHELL, RANGE LOW  (A) : 1.58                     
 200  COMPLETENESS FOR SHELL     (%) : 90.2                               
 200  DATA REDUNDANCY IN SHELL       : 3.00                               
 200  R MERGE FOR SHELL          (I) : 0.37400                            
 200  R SYM FOR SHELL            (I) : NULL                               
 200  <I/SIGMA(I)> FOR SHELL         : 2.600                              
 200                                                                      
 200 DIFFRACTION PROTOCOL: SINGLE WAVELENGTH                              
 200 METHOD USED TO DETERMINE THE STRUCTURE: FOURIER SYNTHESIS            
 200 SOFTWARE USED: MOLREP                                                
 200 STARTING MODEL: NULL                                                 
 200                                                                      
 200 REMARK: NULL                                                         
 280                                                                      
 280 CRYSTAL                                                              
 280 SOLVENT CONTENT, VS   (%): 38.08                                     
 280 MATTHEWS COEFFICIENT, VM (ANGSTROMS**3/DA): 1.99                     
 280                                                                      
 280 CRYSTALLIZATION CONDITIONS: 21-30% PEG 6000, 0.1M HEPES BUFFER,      
 280  0.56MM CYMAL-6, PH 6.8-7.8, VAPOR DIFFUSION, SITTING DROP,          
 280  TEMPERATURE 293K                                                    
 290                                                                      
 290 CRYSTALLOGRAPHIC SYMMETRY                                            
 290 SYMMETRY OPERATORS FOR SPACE GROUP: P 21 21 21                       
 290                                                                      
 290      SYMOP   SYMMETRY                                                
 290     NNNMMM   OPERATOR                                                
 290       1555   X,Y,Z                                                   
 290       2555   -X+1/2,-Y,Z+1/2                                         
 290       3555   -X,Y+1/2,-Z+1/2                                         
 290       4555   X+1/2,-Y+1/2,-Z                                         
 290                                                                      
 290     WHERE NNN -> OPERATOR NUMBER                                     
 290           MMM -> TRANSLATION VECTOR                                  
 290                                                                      
 290 CRYSTALLOGRAPHIC SYMMETRY TRANSFORMATIONS                            
 290 THE FOLLOWING TRANSFORMATIONS OPERATE ON THE ATOM/HETATM             
 290 RECORDS IN THIS ENTRY TO PRODUCE CRYSTALLOGRAPHICALLY                
 290 RELATED MOLECULES.                                                   
 290   SMTRY1   1  1.000000  0.000000  0.000000        0.00000            
 290   SMTRY2   1  0.000000  1.000000  0.000000        0.00000            
 290   SMTRY3   1  0.000000  0.000000  1.000000        0.00000            
 290   SMTRY1   2 -1.000000  0.000000  0.000000       24.75850            
 290   SMTRY2   2  0.000000 -1.000000  0.000000        0.00000            
 290   SMTRY3   2  0.000000  0.000000  1.000000       42.02100            
 290   SMTRY1   3 -1.000000  0.000000  0.000000        0.00000            
 290   SMTRY2   3  0.000000  1.000000  0.000000       27.59850            
 290   SMTRY3   3  0.000000  0.000000 -1.000000       42.02100            
 290   SMTRY1   4  1.000000  0.000000  0.000000       24.75850            
 290   SMTRY2   4  0.000000 -1.000000  0.000000       27.59850            
 290   SMTRY3   4  0.000000  0.000000 -1.000000        0.00000            
 290                                                                      
 290 REMARK: NULL                                                         
 300                                                                      
 300 BIOMOLECULE: 1                                                       
 300 SEE REMARK 350 FOR THE AUTHOR PROVIDED AND/OR PROGRAM                
 300 GENERATED ASSEMBLY INFORMATION FOR THE STRUCTURE IN                  
 300 THIS ENTRY. THE REMARK MAY ALSO PROVIDE INFORMATION ON               
 300 BURIED SURFACE AREA.                                                 
 350                                                                      
 350 COORDINATES FOR A COMPLETE MULTIMER REPRESENTING THE KNOWN           
 350 BIOLOGICALLY SIGNIFICANT OLIGOMERIZATION STATE OF THE                
 350 MOLECULE CAN BE GENERATED BY APPLYING BIOMT TRANSFORMATIONS          
 350 GIVEN BELOW.  BOTH NON-CRYSTALLOGRAPHIC AND                          
 350 CRYSTALLOGRAPHIC OPERATIONS ARE GIVEN.                               
 350                                                                      
 350 BIOMOLECULE: 1                                                       
 350 AUTHOR DETERMINED BIOLOGICAL UNIT: MONOMERIC                         
 350 SOFTWARE DETERMINED QUATERNARY STRUCTURE: MONOMERIC                  
 350 SOFTWARE USED: PISA                                                  
 350 APPLY THE FOLLOWING TO CHAINS: A                                     
 350   BIOMT1   1  1.000000  0.000000  0.000000        0.00000            
 350   BIOMT2   1  0.000000  1.000000  0.000000        0.00000            
 350   BIOMT3   1  0.000000  0.000000  1.000000        0.00000            
 500                                                                      
 500 GEOMETRY AND STEREOCHEMISTRY                                         
 500 SUBTOPIC: COVALENT BOND ANGLES                                       
 500                                                                      
 500 THE STEREOCHEMICAL PARAMETERS OF THE FOLLOWING RESIDUES              
 500 HAVE VALUES WHICH DEVIATE FROM EXPECTED VALUES BY MORE               
 500 THAN 6*RMSD (M=MODEL NUMBER; RES=RESIDUE NAME; C=CHAIN               
 500 IDENTIFIER; SSEQ=SEQUENCE NUMBER; I=INSERTION CODE).                 
 500                                                                      
 500 STANDARD TABLE:                                                      
 500 FORMAT: (10X,I3,1X,A3,1X,A1,I4,A1,3(1X,A4,2X),12X,F5.1)              
 500                                                                      
 500 EXPECTED VALUES PROTEIN: ENGH AND HUBER, 1999                        
 500 EXPECTED VALUES NUCLEIC ACID: CLOWNEY ET AL 1996                     
 500                                                                      
 500  M RES CSSEQI ATM1   ATM2   ATM3                                     
 500    ARG A 275   NE  -  CZ  -  NH2 ANGL. DEV. =  -3.0 DEGREES          
 500                                                                      
 500 REMARK: NULL                                                         
 500                                                                      
 500 GEOMETRY AND STEREOCHEMISTRY                                         
 500 SUBTOPIC: TORSION ANGLES                                             
 500                                                                      
 500 TORSION ANGLES OUTSIDE THE EXPECTED RAMACHANDRAN REGIONS:            
 500 (M=MODEL NUMBER; RES=RESIDUE NAME; C=CHAIN IDENTIFIER;               
 500 SSEQ=SEQUENCE NUMBER; I=INSERTION CODE).                             
 500                                                                      
 500 STANDARD TABLE:                                                      
 500 FORMAT:(10X,I3,1X,A3,1X,A1,I4,A1,4X,F7.2,3X,F7.2)                    
 500                                                                      
 500 EXPECTED VALUES: GJ KLEYWEGT AND TA JONES (1996). PHI/PSI-           
 500 CHOLOGY: RAMACHANDRAN REVISITED. STRUCTURE 4, 1395 - 1400            
 500                                                                      
 500  M RES CSSEQI        PSI       PHI                                   
 500    MET A  69     -141.42     51.48                                   
 500    TYR A 105       82.07     78.98                                   
 500                                                                      
 500 REMARK: NULL                                                         
 610                                                                      
 610 MISSING HETEROATOM                                                   
 610 THE FOLLOWING RESIDUES HAVE MISSING ATOMS (M=MODEL NUMBER;           
 610 RES=RESIDUE NAME; C=CHAIN IDENTIFIER; SSEQ=SEQUENCE NUMBER;          
 610 I=INSERTION CODE):                                                   
 610   M RES C SSEQI                                                      
 610     MA4 A  302                                                       
 610     2AW A  304                                                       
 800                                                                      
 800 SITE                                                                 
 800 SITE_IDENTIFIER: AC1                                                 
 800 EVIDENCE_CODE: SOFTWARE                                              
 800 SITE_DESCRIPTION: BINDING SITE FOR RESIDUE MA4 A 301                 
 800                                                                      
 800 SITE_IDENTIFIER: AC2                                                 
 800 EVIDENCE_CODE: SOFTWARE                                              
 800 SITE_DESCRIPTION: BINDING SITE FOR RESIDUE MA4 A 302                 
 800                                                                      
 800 SITE_IDENTIFIER: AC3                                                 
 800 EVIDENCE_CODE: SOFTWARE                                              
 800 SITE_DESCRIPTION: BINDING SITE FOR RESIDUE 2AW A 303                 
 800                                                                      
 800 SITE_IDENTIFIER: AC4                                                 
 800 EVIDENCE_CODE: SOFTWARE                                              
 800 SITE_DESCRIPTION: BINDING SITE FOR RESIDUE 2AW A 304                 
 900                                                                      
 900 RELATED ENTRIES                                                      
 900 RELATED ID: 2H5S   RELATED DB: PDB                                   
 900 STRUCTURE OF ANALOG SA2-13 BOUND TO SHV-1 BETA-LACTAMASE             
 900 RELATED ID: 4MBH   RELATED DB: PDB                                   
 900 RELATED ID: 4MBK   RELATED DB: PDB                                   

>  <DBREF>
 4MBF A   26   292  UNP    P0AD64   BLA1_KLEPN      22    286             

>  <SEQRES>
   1 A  265  SER PRO GLN PRO LEU GLU GLN ILE LYS LEU SER GLU SER          
   2 A  265  GLN LEU SER GLY ARG VAL GLY MET ILE GLU MET ASP LEU          
   3 A  265  ALA SER GLY ARG THR LEU THR ALA TRP ARG ALA ASP GLU          
   4 A  265  ARG PHE PRO MET MET SER THR PHE LYS VAL VAL LEU CYS          
   5 A  265  GLY ALA VAL LEU ALA ARG VAL ASP ALA GLY ASP GLU GLN          
   6 A  265  LEU GLU ARG LYS ILE HIS TYR ARG GLN GLN ASP LEU VAL          
   7 A  265  ASP TYR SER PRO VAL SER GLU LYS HIS LEU ALA ASP GLY          
   8 A  265  MET THR VAL GLY GLU LEU CYS ALA ALA ALA ILE THR MET          
   9 A  265  SER ASP ASN SER ALA ALA ASN LEU LEU LEU ALA THR VAL          
  10 A  265  GLY GLY PRO ALA GLY LEU THR ALA PHE LEU ARG GLN ILE          
  11 A  265  GLY ASP ASN VAL THR ARG LEU ASP ARG TRP GLU THR GLU          
  12 A  265  LEU ASN GLU ALA LEU PRO GLY ASP ALA ARG ASP THR THR          
  13 A  265  THR PRO ALA SER MET ALA ALA THR LEU ARG LYS LEU LEU          
  14 A  265  THR SER GLN ARG LEU SER ALA ARG SER GLN ARG GLN LEU          
  15 A  265  LEU GLN TRP MET VAL ASP ASP ARG VAL ALA GLY PRO LEU          
  16 A  265  ILE ARG SER VAL LEU PRO ALA GLY TRP PHE ILE ALA ASP          
  17 A  265  LYS THR GLY ALA GLY GLU ARG GLY ALA ARG GLY ILE VAL          
  18 A  265  ALA LEU LEU GLY PRO ASN ASN LYS ALA GLU ARG ILE VAL          
  19 A  265  VAL ILE TYR LEU ARG ASP THR PRO ALA SER MET ALA GLU          
  20 A  265  ARG ASN GLN GLN ILE ALA GLY ILE GLY ALA ALA LEU ILE          
  21 A  265  GLU HIS TRP GLN ARG                                          

>  <HET>
 MA4  A 301      35                                                       
 MA4  A 302      13                                                       
 2AW  A 303      36                                                       
 2AW  A 304      10                                                       

>  <HETNAM>
     MA4 CYCLOHEXYL-HEXYL-BETA-D-MALTOSIDE                                
     2AW 6-({(2R,3S)-3-CARBOXY-2-METHYL-3-[(3-OXOPROPYL)AMINO]-           
   2 2AW  2-SULFINOPROPYL}OXY)-6-OXOHEXANOIC ACID                         

>  <FORMUL>
   2  MA4    2(C24 H44 O11)                                               
   4  2AW    2(C14 H23 N O9 S)                                            
   6  HOH   *170(H2 O)                                                    

>  <HELIX>
   1   1 GLN A   28  SER A   41  1                                  14    
   2   2 THR A   71  ALA A   86  1                                  16    
   3   3 ARG A   98  LEU A  102  5                                   5    
   4   4 VAL A  108  LEU A  113  5                                   6    
   5   5 VAL A  119  SER A  130  1                                  12    
   6   6 ASP A  131  VAL A  142  1                                  12    
   7   7 GLY A  143  ILE A  155  1                                  13    
   8   8 THR A  167  GLU A  171  5                                   5    
   9   9 THR A  182  SER A  196  1                                  15    
  10  10 SER A  200  ASP A  213  1                                  14    
  11  11 ALA A  217  LEU A  225  1                                   9    
  12  12 GLU A  240  GLY A  242  5                                   3    
  13  13 SER A  271  HIS A  289  1                                  19    

>  <SHEET>
   1   A 5 THR A  56  TRP A  60  0                                        
   2   A 5 ARG A  43  ASP A  50 -1  N  GLU A  48   O  LEU A  57           
   3   A 5 ARG A 259  ARG A 266 -1  O  ILE A 260   N  MET A  49           
   4   A 5 ARG A 244  GLY A 251 -1  N  ARG A 244   O  LEU A 265           
   5   A 5 PHE A 230  ALA A 237 -1  N  PHE A 230   O  GLY A 251           
   1   B 2 PHE A  66  PRO A  67  0                                        
   2   B 2 THR A 180  THR A 181 -1  O  THR A 181   N  PHE A  66           
   1   C 2 LYS A  94  ILE A  95  0                                        
   2   C 2 MET A 117  THR A 118 -1  O  MET A 117   N  ILE A  95           

>  <SSBOND>
   1 CYS A   77    CYS A  123                          1555   1555  2.07  

>  <LINK>
       OG  SER A  70                 CAJ 2AW A 303     1555   1555  1.53  

>  <CISPEP>
   1 GLU A  166    THR A  167          0         9.28                     

>  <SITE>
   1 AC1 14 ARG A  93  LYS A  94  ILE A  95  HIS A  96                    
   2 AC1 14 VAL A 224  PRO A 226  ALA A 248  ILE A 263                    
   3 AC1 14 ALA A 280  ALA A 284  GLU A 288  2AW A 304                    
   4 AC1 14 HOH A 402  HOH A 473                                          
   1 AC2  2 ARG A 244  ILE A 279                                          
   1 AC3 15 MET A  69  SER A  70  TYR A 105  SER A 130                    
   2 AC3 15 ASN A 132  GLU A 166  THR A 167  ASN A 170                    
   3 AC3 15 LYS A 234  THR A 235  GLY A 236  ALA A 237                    
   4 AC3 15 ARG A 244  HOH A 511  HOH A 541                               
   1 AC4  9 HIS A  96  ARG A 205  VAL A 224  PRO A 226                    
   2 AC4  9 ALA A 227  MA4 A 301  HOH A 450  HOH A 461                    
   3 AC4  9 HOH A 506                                                     

>  <ORIGX1>
      1.000000  0.000000  0.000000        0.00000                         

>  <ORIGX2>
      0.000000  1.000000  0.000000        0.00000                         

>  <ORIGX3>
      0.000000  0.000000  1.000000        0.00000                         

>  <SCALE1>
      0.020195  0.000000  0.000000        0.00000                         

>  <SCALE2>
      0.000000  0.018117  0.000000        0.00000                         

>  <SCALE3>
      0.000000  0.000000  0.011899        0.00000                         

>  <MASTER>
      306    0    4   13    9    0   12    6 2277    1   98   21          

$$$$
