start_structures/Ligand_Substrate/Ligand_Complex_Stripped/2UL_4OPZ.pdb
 OpenBabel08222315203D

 31 32  0  0  1  0  0  0  0  0999 V2000
  -17.2700   -3.9460    2.7200 N   0  0  0  0  0  0  0  0  0  0  0  0
  -18.6940   -4.2260    2.5470 C   0  0  2  0  0  0  0  0  0  0  0  0
  -19.3240   -3.4890    1.3640 C   0  0  0  0  0  0  0  0  0  0  0  0
  -20.4880   -3.7360    1.0320 O   0  0  0  0  0  0  0  0  0  0  0  0
  -19.4680   -3.9160    3.8290 C   0  0  0  0  0  0  0  0  0  0  0  0
  -19.3250   -4.9640    4.7780 O   0  0  0  0  0  0  0  0  0  0  0  0
  -15.0980   -4.2640   10.5180 C   0  0  0  0  0  0  0  0  0  0  0  0
  -15.4170   -3.3260   11.4910 C   0  0  0  0  0  0  0  0  0  0  0  0
  -16.3540   -3.6350   12.4680 C   0  0  0  0  0  0  0  0  0  0  0  0
  -16.9660   -4.8810   12.4720 C   0  0  0  0  0  0  0  0  0  0  0  0
  -16.6460   -5.8180   11.4970 C   0  0  0  0  0  0  0  0  0  0  0  0
  -15.7040   -5.5130   10.5250 C   0  0  0  0  0  0  0  0  0  0  0  0
  -15.3530   -6.5510    9.4480 C   0  0  1  0  0  0  0  0  0  0  0  0
  -14.9090   -7.8000   10.0790 N   0  0  0  0  0  0  0  0  0  0  0  0
  -16.6150   -6.8370    8.6340 C   0  0  0  0  0  0  0  0  0  0  0  0
  -17.2080   -7.9090    8.7370 O   0  0  0  0  0  0  0  0  0  0  0  0
  -16.9940   -5.8560    7.8240 N   0  0  0  0  0  0  0  0  0  0  0  0
  -18.2060   -5.9750    7.0020 C   0  0  2  0  0  0  0  0  0  0  0  0
  -17.8870   -5.2000    5.3820 B   0  0  0  0  0  0  0  0  0  0  0  0
  -17.2550   -6.2180    4.5430 O   0  0  0  0  0  0  0  0  0  0  0  0
  -17.2120   -3.9030    5.5390 O   0  0  0  0  0  0  0  0  0  0  0  0
  -19.4390   -5.4070    7.7410 C   0  0  0  0  0  0  0  0  0  0  0  0
  -19.3100   -3.9690    8.2780 C   0  0  0  0  0  0  0  0  0  0  0  0
  -19.7520   -2.8980    7.5070 C   0  0  0  0  0  0  0  0  0  0  0  0
  -18.7860   -3.7180    9.5470 C   0  0  0  0  0  0  0  0  0  0  0  0
  -18.6960   -2.4140   10.0180 C   0  0  0  0  0  0  0  0  0  0  0  0
  -19.1330   -1.3530    9.2330 C   0  0  0  0  0  0  0  0  0  0  0  0
  -19.6560   -1.5980    7.9740 C   0  0  0  0  0  0  0  0  0  0  0  0
  -20.1610   -0.4600    7.0980 C   0  0  0  0  0  0  0  0  0  0  0  0
  -19.8500    0.7100    7.3940 O   0  0  0  0  0  0  0  0  0  0  0  0
  -20.9060   -0.7740    6.1470 O   0  0  0  0  0  0  0  0  0  0  0  0
  2  1  1  1  0  0  0
  2  5  1  0  0  0  0
  3  2  1  0  0  0  0
  4  3  2  0  0  0  0
  5  6  1  0  0  0  0
  6 19  1  0  0  0  0
  7  8  2  0  0  0  0
  7 12  1  0  0  0  0
  8  9  1  0  0  0  0
  9 10  2  0  0  0  0
 10 11  1  0  0  0  0
 11 12  2  0  0  0  0
 12 13  1  0  0  0  0
 13 14  1  1  0  0  0
 13 15  1  0  0  0  0
 15 16  2  0  0  0  0
 15 17  1  0  0  0  0
 17 18  1  0  0  0  0
 18 19  1  0  0  0  0
 18 22  1  1  0  0  0
 19 20  1  0  0  0  0
 19 21  1  0  0  0  0
 22 23  1  0  0  0  0
 23 24  2  0  0  0  0
 23 25  1  0  0  0  0
 24 28  1  0  0  0  0
 25 26  2  0  0  0  0
 26 27  1  0  0  0  0
 27 28  2  0  0  0  0
 28 29  1  0  0  0  0
 29 30  2  0  0  0  0
 29 31  1  0  0  0  0
M  END
>  <HEADER>
    HYDROLASE/HYDROLASE INHIBITOR           07-FEB-14   4OPZ              

>  <TITLE>
    CRYSTAL STRUCTURE OF STABILIZED TEM-1 BETA-LACTAMASE VARIANT V.13     
   2 CARRYING G238S MUTATION IN COMPLEX WITH BORON-BASED INHIBITOR EC25   

>  <COMPND>
    MOL_ID: 1;                                                            
   2 MOLECULE: TEM-94 ES-BETA-LACTAMASE;                                  
   3 CHAIN: A;                                                            
   4 FRAGMENT: TEM-1;                                                     
   5 ENGINEERED: YES;                                                     
   6 MUTATION: YES                                                        

>  <SOURCE>
    MOL_ID: 1;                                                            
   2 ORGANISM_SCIENTIFIC: ESCHERICHIA COLI;                               
   3 ORGANISM_TAXID: 562;                                                 
   4 GENE: BLA-TEM-94;                                                    
   5 EXPRESSION_SYSTEM: ESCHERICHIA COLI;                                 
   6 EXPRESSION_SYSTEM_TAXID: 562                                         

>  <KEYWDS>
    BETA-LACTAMASE, HYDROLASE-HYDROLASE INHIBITOR COMPLEX                 

>  <EXPDTA>
    X-RAY DIFFRACTION                                                     

>  <AUTHOR>
    E.DELLUS-GUR,M.ELIAS,J.S.FRASER,D.S.TAWFIK                            

>  <REVDAT>
   2   17-JAN-18 4OPZ    1       JRNL                                     
   1   20-MAY-15 4OPZ    0                                                

>  <JRNL>
      AUTH   E.DELLUS-GUR,M.ELIAS,E.CASELLI,F.PRATI,M.L.SALVERDA,         
      AUTH 2 J.A.DE VISSER,J.S.FRASER,D.S.TAWFIK                          
      TITL   NEGATIVE EPISTASIS AND EVOLVABILITY IN TEM-1                 
      TITL 2 BETA-LACTAMASE--THE THIN LINE BETWEEN AN ENZYME'S            
      TITL 3 CONFORMATIONAL FREEDOM AND DISORDER.                         
      REF    J. MOL. BIOL.                 V. 427  2396 2015              
      REFN                   ESSN 1089-8638                               
      PMID   26004540                                                     
      DOI    10.1016/J.JMB.2015.05.011                                    

>  <REMARK>
   2                                                                      
   2 RESOLUTION.    1.45 ANGSTROMS.                                       
   3                                                                      
   3 REFINEMENT.                                                          
   3   PROGRAM     : REFMAC 5.7.0032                                      
   3   AUTHORS     : MURSHUDOV,VAGIN,DODSON                               
   3                                                                      
   3    REFINEMENT TARGET : MAXIMUM LIKELIHOOD                            
   3                                                                      
   3  DATA USED IN REFINEMENT.                                            
   3   RESOLUTION RANGE HIGH (ANGSTROMS) : 1.45                           
   3   RESOLUTION RANGE LOW  (ANGSTROMS) : 31.17                          
   3   DATA CUTOFF            (SIGMA(F)) : NULL                           
   3   COMPLETENESS FOR RANGE        (%) : 97.0                           
   3   NUMBER OF REFLECTIONS             : 41047                          
   3                                                                      
   3  FIT TO DATA USED IN REFINEMENT.                                     
   3   CROSS-VALIDATION METHOD          : THROUGHOUT                      
   3   FREE R VALUE TEST SET SELECTION  : RANDOM                          
   3   R VALUE     (WORKING + TEST SET) : 0.114                           
   3   R VALUE            (WORKING SET) : 0.112                           
   3   FREE R VALUE                     : 0.159                           
   3   FREE R VALUE TEST SET SIZE   (%) : 5.000                           
   3   FREE R VALUE TEST SET COUNT      : 2161                            
   3                                                                      
   3  FIT IN THE HIGHEST RESOLUTION BIN.                                  
   3   TOTAL NUMBER OF BINS USED           : 20                           
   3   BIN RESOLUTION RANGE HIGH       (A) : 1.45                         
   3   BIN RESOLUTION RANGE LOW        (A) : 1.49                         
   3   REFLECTION IN BIN     (WORKING SET) : 2829                         
   3   BIN COMPLETENESS (WORKING+TEST) (%) : 91.86                        
   3   BIN R VALUE           (WORKING SET) : 0.1910                       
   3   BIN FREE R VALUE SET COUNT          : 149                          
   3   BIN FREE R VALUE                    : 0.2450                       
   3                                                                      
   3  NUMBER OF NON-HYDROGEN ATOMS USED IN REFINEMENT.                    
   3   PROTEIN ATOMS            : 2017                                    
   3   NUCLEIC ACID ATOMS       : 0                                       
   3   HETEROGEN ATOMS          : 34                                      
   3   SOLVENT ATOMS            : 379                                     
   3                                                                      
   3  B VALUES.                                                           
   3   FROM WILSON PLOT           (A**2) : NULL                           
   3   MEAN B VALUE      (OVERALL, A**2) : 15.25                          
   3   OVERALL ANISOTROPIC B VALUE.                                       
   3    B11 (A**2) : 0.00000                                              
   3    B22 (A**2) : 0.05000                                              
   3    B33 (A**2) : -0.05000                                             
   3    B12 (A**2) : 0.00000                                              
   3    B13 (A**2) : 0.03000                                              
   3    B23 (A**2) : 0.00000                                              
   3                                                                      
   3  ESTIMATED OVERALL COORDINATE ERROR.                                 
   3   ESU BASED ON R VALUE                            (A): 0.066         
   3   ESU BASED ON FREE R VALUE                       (A): 0.060         
   3   ESU BASED ON MAXIMUM LIKELIHOOD                 (A): 0.038         
   3   ESU FOR B VALUES BASED ON MAXIMUM LIKELIHOOD (A**2): 2.236         
   3                                                                      
   3 CORRELATION COEFFICIENTS.                                            
   3   CORRELATION COEFFICIENT FO-FC      : 0.982                         
   3   CORRELATION COEFFICIENT FO-FC FREE : 0.967                         
   3                                                                      
   3  RMS DEVIATIONS FROM IDEAL VALUES        COUNT    RMS    WEIGHT      
   3   BOND LENGTHS REFINED ATOMS        (A):  2324 ; 0.004 ; 0.019       
   3   BOND LENGTHS OTHERS               (A):  2291 ; 0.002 ; 0.020       
   3   BOND ANGLES REFINED ATOMS   (DEGREES):  3184 ; 1.037 ; 1.992       
   3   BOND ANGLES OTHERS          (DEGREES):  5298 ; 0.627 ; 3.002       
   3   TORSION ANGLES, PERIOD 1    (DEGREES):   326 ; 5.487 ; 5.000       
   3   TORSION ANGLES, PERIOD 2    (DEGREES):   101 ;35.362 ;23.663       
   3   TORSION ANGLES, PERIOD 3    (DEGREES):   438 ;12.387 ;15.000       
   3   TORSION ANGLES, PERIOD 4    (DEGREES):    22 ;10.614 ;15.000       
   3   CHIRAL-CENTER RESTRAINTS       (A**3):   364 ; 0.061 ; 0.200       
   3   GENERAL PLANES REFINED ATOMS      (A):  2666 ; 0.006 ; 0.021       
   3   GENERAL PLANES OTHERS             (A):   503 ; 0.004 ; 0.020       
   3   NON-BONDED CONTACTS REFINED ATOMS (A):  NULL ;  NULL ;  NULL       
   3   NON-BONDED CONTACTS OTHERS        (A):  NULL ;  NULL ;  NULL       
   3   NON-BONDED TORSION REFINED ATOMS  (A):  NULL ;  NULL ;  NULL       
   3   NON-BONDED TORSION OTHERS         (A):  NULL ;  NULL ;  NULL       
   3   H-BOND (X...Y) REFINED ATOMS      (A):  NULL ;  NULL ;  NULL       
   3   H-BOND (X...Y) OTHERS             (A):  NULL ;  NULL ;  NULL       
   3   POTENTIAL METAL-ION REFINED ATOMS (A):  NULL ;  NULL ;  NULL       
   3   POTENTIAL METAL-ION OTHERS        (A):  NULL ;  NULL ;  NULL       
   3   SYMMETRY VDW REFINED ATOMS        (A):  NULL ;  NULL ;  NULL       
   3   SYMMETRY VDW OTHERS               (A):  NULL ;  NULL ;  NULL       
   3   SYMMETRY H-BOND REFINED ATOMS     (A):  NULL ;  NULL ;  NULL       
   3   SYMMETRY H-BOND OTHERS            (A):  NULL ;  NULL ;  NULL       
   3   SYMMETRY METAL-ION REFINED ATOMS  (A):  NULL ;  NULL ;  NULL       
   3   SYMMETRY METAL-ION OTHERS         (A):  NULL ;  NULL ;  NULL       
   3                                                                      
   3  ISOTROPIC THERMAL FACTOR RESTRAINTS.     COUNT   RMS    WEIGHT      
   3   MAIN-CHAIN BOND REFINED ATOMS  (A**2):  1139 ; 2.886 ; 1.175       
   3   MAIN-CHAIN BOND OTHER ATOMS    (A**2):  1137 ; 2.888 ; 1.172       
   3   MAIN-CHAIN ANGLE REFINED ATOMS (A**2):  1437 ; 3.428 ; 1.765       
   3   MAIN-CHAIN ANGLE OTHER ATOMS   (A**2):  1438 ; 3.428 ; 1.766       
   3   SIDE-CHAIN BOND REFINED ATOMS  (A**2):  1185 ; 4.471 ; 1.491       
   3   SIDE-CHAIN BOND OTHER ATOMS    (A**2):  1185 ; 4.455 ; 1.490       
   3   SIDE-CHAIN ANGLE REFINED ATOMS (A**2):  NULL ;  NULL ;  NULL       
   3   SIDE-CHAIN ANGLE OTHER ATOMS   (A**2):  1719 ; 4.556 ; 2.154       
   3   LONG RANGE B REFINED ATOMS     (A**2):  3054 ; 5.161 ;12.502       
   3   LONG RANGE B OTHER ATOMS       (A**2):  2805 ; 4.278 ;10.711       
   3                                                                      
   3 ANISOTROPIC THERMAL FACTOR RESTRAINTS.    COUNT   RMS   WEIGHT       
   3   RIGID-BOND RESTRAINTS          (A**2):  4615 ;20.314 ; 3.000       
   3   SPHERICITY; FREE ATOMS         (A**2):    91 ;35.368 ; 5.000       
   3   SPHERICITY; BONDED ATOMS       (A**2):  4854 ;11.653 ; 5.000       
   3                                                                      
   3  NCS RESTRAINTS STATISTICS                                           
   3   NUMBER OF DIFFERENT NCS GROUPS : NULL                              
   3                                                                      
   3  TLS DETAILS                                                         
   3   NUMBER OF TLS GROUPS  : NULL                                       
   3                                                                      
   3  BULK SOLVENT MODELLING.                                             
   3   METHOD USED : MASK                                                 
   3   PARAMETERS FOR MASK CALCULATION                                    
   3   VDW PROBE RADIUS   : 1.20                                          
   3   ION PROBE RADIUS   : 0.80                                          
   3   SHRINKAGE RADIUS   : 0.80                                          
   3                                                                      
   3  OTHER REFINEMENT REMARKS: HYDROGENS HAVE BEEN ADDED IN THE RIDING   
   3  POSITIONS                                                           
   4                                                                      
   4 4OPZ COMPLIES WITH FORMAT V. 3.30, 13-JUL-11                         
 100                                                                      
 100 THIS ENTRY HAS BEEN PROCESSED BY RCSB ON 10-FEB-14.                  
 100 THE DEPOSITION ID IS D_1000084804.                                   
 200                                                                      
 200 EXPERIMENTAL DETAILS                                                 
 200  EXPERIMENT TYPE                : X-RAY DIFFRACTION                  
 200  DATE OF DATA COLLECTION        : NULL                               
 200  TEMPERATURE           (KELVIN) : 100                                
 200  PH                             : 6.2                                
 200  NUMBER OF CRYSTALS USED        : 1                                  
 200                                                                      
 200  SYNCHROTRON              (Y/N) : N                                  
 200  RADIATION SOURCE               : ROTATING ANODE                     
 200  BEAMLINE                       : NULL                               
 200  X-RAY GENERATOR MODEL          : RIGAKU RUH3R                       
 200  MONOCHROMATIC OR LAUE    (M/L) : M                                  
 200  WAVELENGTH OR RANGE        (A) : 1.54178                            
 200  MONOCHROMATOR                  : NULL                               
 200  OPTICS                         : NULL                               
 200                                                                      
 200  DETECTOR TYPE                  : IMAGE PLATE                        
 200  DETECTOR MANUFACTURER          : RIGAKU RAXIS IV++                  
 200  INTENSITY-INTEGRATION SOFTWARE : XDS                                
 200  DATA SCALING SOFTWARE          : XSCALE                             
 200                                                                      
 200  NUMBER OF UNIQUE REFLECTIONS   : 43208                              
 200  RESOLUTION RANGE HIGH      (A) : 1.450                              
 200  RESOLUTION RANGE LOW       (A) : 31.150                             
 200  REJECTION CRITERIA  (SIGMA(I)) : 3.000                              
 200                                                                      
 200 OVERALL.                                                             
 200  COMPLETENESS FOR RANGE     (%) : NULL                               
 200  DATA REDUNDANCY                : NULL                               
 200  R MERGE                    (I) : NULL                               
 200  R SYM                      (I) : NULL                               
 200  <I/SIGMA(I)> FOR THE DATA SET  : NULL                               
 200                                                                      
 200 IN THE HIGHEST RESOLUTION SHELL.                                     
 200  HIGHEST RESOLUTION SHELL, RANGE HIGH (A) : NULL                     
 200  HIGHEST RESOLUTION SHELL, RANGE LOW  (A) : NULL                     
 200  COMPLETENESS FOR SHELL     (%) : NULL                               
 200  DATA REDUNDANCY IN SHELL       : NULL                               
 200  R MERGE FOR SHELL          (I) : NULL                               
 200  R SYM FOR SHELL            (I) : NULL                               
 200  <I/SIGMA(I)> FOR SHELL         : NULL                               
 200                                                                      
 200 DIFFRACTION PROTOCOL: SINGLE WAVELENGTH                              
 200 METHOD USED TO DETERMINE THE STRUCTURE: MOLECULAR REPLACEMENT        
 200 SOFTWARE USED: MOLREP                                                
 200 STARTING MODEL: PDB ENTRY 1ZG4                                       
 200                                                                      
 200 REMARK: NULL                                                         
 280                                                                      
 280 CRYSTAL                                                              
 280 SOLVENT CONTENT, VS   (%): 44.11                                     
 280 MATTHEWS COEFFICIENT, VM (ANGSTROMS**3/DA): 2.20                     
 280                                                                      
 280 CRYSTALLIZATION CONDITIONS: 9% (WT/VOL) POLYETHYLENE GLYCOL (PEG)    
 280  8000, 100 MM MES, AND 200MM CA(OAC)2, PH 6.2, VAPOR DIFFUSION,      
 280  HANGING DROP, TEMPERATURE 293K                                      
 290                                                                      
 290 CRYSTALLOGRAPHIC SYMMETRY                                            
 290 SYMMETRY OPERATORS FOR SPACE GROUP: C 1 2 1                          
 290                                                                      
 290      SYMOP   SYMMETRY                                                
 290     NNNMMM   OPERATOR                                                
 290       1555   X,Y,Z                                                   
 290       2555   -X,Y,-Z                                                 
 290       3555   X+1/2,Y+1/2,Z                                           
 290       4555   -X+1/2,Y+1/2,-Z                                         
 290                                                                      
 290     WHERE NNN -> OPERATOR NUMBER                                     
 290           MMM -> TRANSLATION VECTOR                                  
 290                                                                      
 290 CRYSTALLOGRAPHIC SYMMETRY TRANSFORMATIONS                            
 290 THE FOLLOWING TRANSFORMATIONS OPERATE ON THE ATOM/HETATM             
 290 RECORDS IN THIS ENTRY TO PRODUCE CRYSTALLOGRAPHICALLY                
 290 RELATED MOLECULES.                                                   
 290   SMTRY1   1  1.000000  0.000000  0.000000        0.00000            
 290   SMTRY2   1  0.000000  1.000000  0.000000        0.00000            
 290   SMTRY3   1  0.000000  0.000000  1.000000        0.00000            
 290   SMTRY1   2 -1.000000  0.000000  0.000000        0.00000            
 290   SMTRY2   2  0.000000  1.000000  0.000000        0.00000            
 290   SMTRY3   2  0.000000  0.000000 -1.000000        0.00000            
 290   SMTRY1   3  1.000000  0.000000  0.000000       77.78000            
 290   SMTRY2   3  0.000000  1.000000  0.000000       23.52000            
 290   SMTRY3   3  0.000000  0.000000  1.000000        0.00000            
 290   SMTRY1   4 -1.000000  0.000000  0.000000       77.78000            
 290   SMTRY2   4  0.000000  1.000000  0.000000       23.52000            
 290   SMTRY3   4  0.000000  0.000000 -1.000000        0.00000            
 290                                                                      
 290 REMARK: NULL                                                         
 300                                                                      
 300 BIOMOLECULE: 1, 2                                                    
 300 SEE REMARK 350 FOR THE AUTHOR PROVIDED AND/OR PROGRAM                
 300 GENERATED ASSEMBLY INFORMATION FOR THE STRUCTURE IN                  
 300 THIS ENTRY. THE REMARK MAY ALSO PROVIDE INFORMATION ON               
 300 BURIED SURFACE AREA.                                                 
 350                                                                      
 350 COORDINATES FOR A COMPLETE MULTIMER REPRESENTING THE KNOWN           
 350 BIOLOGICALLY SIGNIFICANT OLIGOMERIZATION STATE OF THE                
 350 MOLECULE CAN BE GENERATED BY APPLYING BIOMT TRANSFORMATIONS          
 350 GIVEN BELOW.  BOTH NON-CRYSTALLOGRAPHIC AND                          
 350 CRYSTALLOGRAPHIC OPERATIONS ARE GIVEN.                               
 350                                                                      
 350 BIOMOLECULE: 1                                                       
 350 AUTHOR DETERMINED BIOLOGICAL UNIT: MONOMERIC                         
 350 APPLY THE FOLLOWING TO CHAINS: A                                     
 350   BIOMT1   1  1.000000  0.000000  0.000000        0.00000            
 350   BIOMT2   1  0.000000  1.000000  0.000000        0.00000            
 350   BIOMT3   1  0.000000  0.000000  1.000000        0.00000            
 350                                                                      
 350 BIOMOLECULE: 2                                                       
 350 SOFTWARE DETERMINED QUATERNARY STRUCTURE: DIMERIC                    
 350 SOFTWARE USED: PISA                                                  
 350 TOTAL BURIED SURFACE AREA: 1480 ANGSTROM**2                          
 350 SURFACE AREA OF THE COMPLEX: 20880 ANGSTROM**2                       
 350 CHANGE IN SOLVENT FREE ENERGY: -11.0 KCAL/MOL                        
 350 APPLY THE FOLLOWING TO CHAINS: A                                     
 350   BIOMT1   1  1.000000  0.000000  0.000000        0.00000            
 350   BIOMT2   1  0.000000  1.000000  0.000000        0.00000            
 350   BIOMT3   1  0.000000  0.000000  1.000000        0.00000            
 350   BIOMT1   2 -1.000000  0.000000  0.000000        0.00000            
 350   BIOMT2   2  0.000000  1.000000  0.000000        0.00000            
 350   BIOMT3   2  0.000000  0.000000 -1.000000        0.00000            
 375                                                                      
 375 SPECIAL POSITION                                                     
 375 THE FOLLOWING ATOMS ARE FOUND TO BE WITHIN 0.15 ANGSTROMS            
 375 OF A SYMMETRY RELATED ATOM AND ARE ASSUMED TO BE ON SPECIAL          
 375 POSITIONS.                                                           
 375                                                                      
 375 ATOM RES CSSEQI                                                      
 375 CA    CA A 302  LIES ON A SPECIAL POSITION.                          
 375      HOH A 749  LIES ON A SPECIAL POSITION.                          
 500                                                                      
 500 GEOMETRY AND STEREOCHEMISTRY                                         
 500 SUBTOPIC: CLOSE CONTACTS IN SAME ASYMMETRIC UNIT                     
 500                                                                      
 500 THE FOLLOWING ATOMS ARE IN CLOSE CONTACT.                            
 500                                                                      
 500  ATM1  RES C  SSEQI   ATM2  RES C  SSEQI           DISTANCE          
 500   O    HOH A   541     O    HOH A   702              2.02            
 500   OD2  ASP A   270     O    HOH A   518              2.06            
 500   OXT  ACT A   303     O    HOH A   681              2.06            
 500   O    HOH A   658     O    HOH A   665              2.07            
 500   O    HOH A   580     O    HOH A   588              2.12            
 500   O    HOH A   499     O    HOH A   669              2.16            
 500   OG1  THR A   194     O    HOH A   507              2.16            
 500   O    HOH A   618     O    HOH A   716              2.17            
 500   O    HOH A   497     O    HOH A   684              2.18            
 500   O    HOH A   745     O    HOH A   751              2.18            
 500                                                                      
 500 REMARK: NULL                                                         
 500                                                                      
 500 GEOMETRY AND STEREOCHEMISTRY                                         
 500 SUBTOPIC: CLOSE CONTACTS                                             
 500                                                                      
 500 THE FOLLOWING ATOMS THAT ARE RELATED BY CRYSTALLOGRAPHIC             
 500 SYMMETRY ARE IN CLOSE CONTACT.  AN ATOM LOCATED WITHIN 0.15          
 500 ANGSTROMS OF A SYMMETRY RELATED ATOM IS ASSUMED TO BE ON A           
 500 SPECIAL POSITION AND IS, THEREFORE, LISTED IN REMARK 375             
 500 INSTEAD OF REMARK 500.  ATOMS WITH NON-BLANK ALTERNATE               
 500 LOCATION INDICATORS ARE NOT INCLUDED IN THE CALCULATIONS.            
 500                                                                      
 500 DISTANCE CUTOFF:                                                     
 500 2.2 ANGSTROMS FOR CONTACTS NOT INVOLVING HYDROGEN ATOMS              
 500 1.6 ANGSTROMS FOR CONTACTS INVOLVING HYDROGEN ATOMS                  
 500                                                                      
 500  ATM1  RES C  SSEQI   ATM2  RES C  SSEQI  SSYMOP   DISTANCE          
 500   O    PRO A   173     N    ASP A   175     2555     2.00            
 500   O    HOH A   667     O    HOH A   668     4455     2.06            
 500   O    HOH A   528     O    HOH A   776     1556     2.11            
 500   C    ILE A   172     CB   ASN A   174     2555     2.14            
 500                                                                      
 500 REMARK: NULL                                                         
 500                                                                      
 500 GEOMETRY AND STEREOCHEMISTRY                                         
 500 SUBTOPIC: TORSION ANGLES                                             
 500                                                                      
 500 TORSION ANGLES OUTSIDE THE EXPECTED RAMACHANDRAN REGIONS:            
 500 (M=MODEL NUMBER; RES=RESIDUE NAME; C=CHAIN IDENTIFIER;               
 500 SSEQ=SEQUENCE NUMBER; I=INSERTION CODE).                             
 500                                                                      
 500 STANDARD TABLE:                                                      
 500 FORMAT:(10X,I3,1X,A3,1X,A1,I4,A1,4X,F7.2,3X,F7.2)                    
 500                                                                      
 500 EXPECTED VALUES: GJ KLEYWEGT AND TA JONES (1996). PHI/PSI-           
 500 CHOLOGY: RAMACHANDRAN REVISITED. STRUCTURE 4, 1395 - 1400            
 500                                                                      
 500  M RES CSSEQI        PSI       PHI                                   
 500    MET A  68     -144.25     51.74                                   
 500    LEU A 219     -123.27   -101.66                                   
 500                                                                      
 500 REMARK: NULL                                                         
 500                                                                      
 500 GEOMETRY AND STEREOCHEMISTRY                                         
 500 SUBTOPIC: NON-CIS, NON-TRANS                                         
 500                                                                      
 500 THE FOLLOWING PEPTIDE BONDS DEVIATE SIGNIFICANTLY FROM BOTH          
 500 CIS AND TRANS CONFORMATION.  CIS BONDS, IF ANY, ARE LISTED           
 500 ON CISPEP RECORDS.  TRANS IS DEFINED AS 180 +/- 30 AND               
 500 CIS IS DEFINED AS 0 +/- 30 DEGREES.                                  
 500                                 MODEL     OMEGA                      
 500 PRO A  173     ASN A  174                   36.74                    
 500                                                                      
 500 REMARK: NULL                                                         
 620                                                                      
 620 METAL COORDINATION                                                   
 620 (M=MODEL NUMBER; RES=RESIDUE NAME; C=CHAIN IDENTIFIER;               
 620 SSEQ=SEQUENCE NUMBER; I=INSERTION CODE):                             
 620                                                                      
 620 COORDINATION ANGLES FOR:  M RES CSSEQI METAL                         
 620                              CA A 302  CA                            
 620 N RES CSSEQI ATOM                                                    
 620 1 GLU A  36   OE2                                                    
 620 2 HOH A 405   O    93.6                                              
 620 3 HOH A 404   O    95.2  80.3                                        
 620 N                    1     2                                         
 800                                                                      
 800 SITE                                                                 
 800 SITE_IDENTIFIER: AC1                                                 
 800 EVIDENCE_CODE: SOFTWARE                                              
 800 SITE_DESCRIPTION: BINDING SITE FOR RESIDUE 2UL A 301                 
 800                                                                      
 800 SITE_IDENTIFIER: AC2                                                 
 800 EVIDENCE_CODE: SOFTWARE                                              
 800 SITE_DESCRIPTION: BINDING SITE FOR RESIDUE CA A 302                  
 800                                                                      
 800 SITE_IDENTIFIER: AC3                                                 
 800 EVIDENCE_CODE: SOFTWARE                                              
 800 SITE_DESCRIPTION: BINDING SITE FOR RESIDUE ACT A 303                 
 800                                                                      
 800 SITE_IDENTIFIER: AC4                                                 
 800 EVIDENCE_CODE: SOFTWARE                                              
 800 SITE_DESCRIPTION: BINDING SITE FOR RESIDUE EDO A 304                 
 900                                                                      
 900 RELATED ENTRIES                                                      
 900 RELATED ID: 4IBR   RELATED DB: PDB                                   
 900 CRYSTAL STRUCTURE OF STABILIZED TEM-1 BETA-LACTAMASE VARIANT V.13    
 900 CARRYING G238S/E104K MUTATIONS                                       
 900 RELATED ID: 4IBX   RELATED DB: PDB                                   
 900 CRYSTAL STRUCTURE OF STABILIZED TEM-1 BETA-LACTAMASE VARIANT V.13    
 900 RELATED ID: 4OP5   RELATED DB: PDB                                   
 900 CRYSTAL STRUCTURE OF STABILIZED TEM-1 BETA-LACTAMASE VARIANT V.13    
 900 CARRYING R164S MUTATION                                              
 900 RELATED ID: 4OP8   RELATED DB: PDB                                   
 900 ROOM TEMPERATURE CRYSTAL STRUCTURE OF STABILIZED TEM-1 BETA-         
 900 LACTAMASE VARIANT V.13 CARRYING G238S MUTATION                       
 900 RELATED ID: 4OPQ   RELATED DB: PDB                                   
 900 ROOM TEMPERATURE CRYSTAL STRUCTURE OF STABILIZED TEM-1 BETA-         
 900 LACTAMASE VARIANT V.13 CARRYING R164S/G238S MUTATIONS                
 900 RELATED ID: 4OPR   RELATED DB: PDB                                   
 900 CRYSTAL STRUCTURE OF STABILIZED TEM-1 BETA-LACTAMASE VARIANT V.13    
 900 CARRYING G238S MUTATION                                              
 900 RELATED ID: 4OPY   RELATED DB: PDB                                   
 900 RELATED ID: 4OQ0   RELATED DB: PDB                                   
 900 RELATED ID: 4OQG   RELATED DB: PDB                                   
 900 RELATED ID: 4OQH   RELATED DB: PDB                                   
 900 RELATED ID: 4OQI   RELATED DB: PDB                                   

>  <DBREF>
 4OPZ A   25   287  UNP    Q8KMX3   Q8KMX3_ECOLX    24    286             

>  <SEQADV>
 4OPZ GLY A   41  UNP  Q8KMX3    ALA    40 ENGINEERED MUTATION            
 4OPZ ALA A   51  UNP  Q8KMX3    ASN    50 ENGINEERED MUTATION            
 4OPZ GLU A  103  UNP  Q8KMX3    LYS   102 ENGINEERED MUTATION            
 4OPZ GLY A  119  UNP  Q8KMX3    ARG   118 ENGINEERED MUTATION            
 4OPZ VAL A  183  UNP  Q8KMX3    ALA   182 ENGINEERED MUTATION            
 4OPZ ALA A  200  UNP  Q8KMX3    LEU   199 ENGINEERED MUTATION            

>  <SEQRES>
   1 A  263  HIS PRO GLU THR LEU VAL LYS VAL LYS ASP ALA GLU ASP          
   2 A  263  GLN LEU GLY GLY ARG VAL GLY TYR ILE GLU LEU ASP LEU          
   3 A  263  ALA SER GLY LYS ILE LEU GLU SER PHE ARG PRO GLU GLU          
   4 A  263  ARG PHE PRO MET MET SER THR PHE LYS VAL LEU LEU CYS          
   5 A  263  GLY ALA VAL LEU SER ARG VAL ASP ALA GLY GLN GLU GLN          
   6 A  263  LEU GLY ARG ARG ILE HIS TYR SER GLN ASN ASP LEU VAL          
   7 A  263  GLU TYR SER PRO VAL THR GLU LYS HIS LEU THR ASP GLY          
   8 A  263  MET THR VAL GLY GLU LEU CYS SER ALA ALA ILE THR MET          
   9 A  263  SER ASP ASN THR ALA ALA ASN LEU LEU LEU THR THR ILE          
  10 A  263  GLY GLY PRO LYS GLU LEU THR ALA PHE LEU HIS ASN MET          
  11 A  263  GLY ASP HIS VAL THR ARG LEU ASP ARG TRP GLU PRO GLU          
  12 A  263  LEU ASN GLU ALA ILE PRO ASN ASP GLU ARG ASP THR THR          
  13 A  263  THR PRO VAL ALA MET ALA THR THR LEU ARG LYS LEU LEU          
  14 A  263  THR GLY GLU LEU LEU THR ALA ALA SER ARG GLN GLN LEU          
  15 A  263  ILE ASP TRP MET GLU ALA ASP LYS VAL ALA GLY PRO LEU          
  16 A  263  LEU ARG SER ALA LEU PRO ALA GLY TRP PHE ILE ALA ASP          
  17 A  263  LYS SER GLY ALA SER GLU ARG GLY SER ARG GLY ILE ILE          
  18 A  263  ALA ALA LEU GLY PRO ASP GLY LYS PRO SER ARG ILE VAL          
  19 A  263  VAL ILE TYR MET THR GLY SER GLN ALA THR MET ASP GLU          
  20 A  263  ARG ASN ARG GLN ILE ALA GLU ILE GLY ALA SER LEU ILE          
  21 A  263  LYS HIS TRP                                                  

>  <HET>
 2UL  A 301      25                                                       
  CA  A 302       1                                                       
 ACT  A 303       4                                                       
 EDO  A 304       4                                                       

>  <HETNAM>
     2UL 3-[(2R)-2-{[(2R)-2-AMINO-2-PHENYLACETYL]AMINO}-2-                
   2 2UL  (DIHYDROXYBORANYL)ETHYL]BENZOIC ACID                            
      CA CALCIUM ION                                                      
     ACT ACETATE ION                                                      
     EDO 1,2-ETHANEDIOL                                                   

>  <HETSYN>
     EDO ETHYLENE GLYCOL                                                  

>  <FORMUL>
   2  2UL    C17 H19 B N2 O5                                              
   3   CA    CA 2+                                                        
   4  ACT    C2 H3 O2 1-                                                  
   5  EDO    C2 H6 O2                                                     
   6  HOH   *379(H2 O)                                                    

>  <HELIX>
   1   1 GLU A   27  GLY A   40  1                                  14    
   2   2 THR A   70  ALA A   85  1                                  16    
   3   3 SER A   97  LEU A  101  5                                   5    
   4   4 VAL A  107  HIS A  111  5                                   5    
   5   5 VAL A  118  MET A  128  1                                  11    
   6   6 ASP A  130  GLY A  142  1                                  13    
   7   7 GLY A  143  MET A  154  1                                  12    
   8   8 PRO A  166  GLU A  170  5                                   5    
   9   9 THR A  181  GLY A  195  1                                  15    
  10  10 THR A  199  ALA A  212  1                                  14    
  11  11 LEU A  219  LEU A  224  5                                   6    
  12  12 THR A  268  HIS A  286  1                                  19    

>  <SHEET>
   1   A 5 ILE A  55  PHE A  59  0                                        
   2   A 5 ARG A  42  ASP A  49 -1  N  GLU A  47   O  LEU A  56           
   3   A 5 ARG A 256  THR A 263 -1  O  TYR A 261   N  GLY A  44           
   4   A 5 ARG A 242  GLY A 249 -1  N  ILE A 244   O  ILE A 260           
   5   A 5 PHE A 229  ALA A 236 -1  N  PHE A 229   O  GLY A 249           
   1   B 2 PHE A  65  PRO A  66  0                                        
   2   B 2 THR A 179  THR A 180 -1  O  THR A 180   N  PHE A  65           
   1   C 2 ARG A  93  ILE A  94  0                                        
   2   C 2 MET A 116  THR A 117 -1  O  MET A 116   N  ILE A  94           

>  <SSBOND>
   1 CYS A  122    CYS A   76                          1555   1555  2.05  

>  <LINK>
       OE2 GLU A  36                CA    CA A 302     1555   1555  2.29  
      CA    CA A 302                 O   HOH A 405     1555   1555  2.35  
      CA    CA A 302                 O   HOH A 404     1555   1555  2.48  
       OG  SER A  69                 B   2UL A 301     1555   1555  1.58  

>  <CISPEP>
   1 GLU A  165    PRO A  166          0         3.67                     

>  <SITE>
   1 AC1 19 MET A  68  SER A  69  GLU A 103  TYR A 104                    
   2 AC1 19 SER A 129  ASN A 131  HIS A 157  GLU A 165                    
   3 AC1 19 ASN A 169  LYS A 233  SER A 234  GLY A 235                    
   4 AC1 19 ALA A 236  SER A 237  GLU A 238  ARG A 242                    
   5 AC1 19 HOH A 524  HOH A 602  HOH A 670                               
   1 AC2  3 GLU A  36  HOH A 404  HOH A 405                               
   1 AC3  7 ALA A  85  LYS A 110  HIS A 111  LEU A 112                    
   2 AC3  7 THR A 113  ASP A 114  HOH A 681                               
   1 AC4  6 ASP A 100  ASN A 135  LEU A 136  THR A 139                    
   2 AC4  6 HOH A 418  HOH A 610                                          

>  <ORIGX1>
      1.000000  0.000000  0.000000        0.00000                         

>  <ORIGX2>
      0.000000  1.000000  0.000000        0.00000                         

>  <ORIGX3>
      0.000000  0.000000  1.000000        0.00000                         

>  <SCALE1>
      0.006428  0.000000  0.000276        0.00000                         

>  <SCALE2>
      0.000000  0.021259  0.000000        0.00000                         

>  <SCALE3>
      0.000000  0.000000  0.028862        0.00000                         

>  <ANISOU>
  391  N   SER A  69      779    818   1040    -22    -30     68       N  
  392  CA  SER A  69      925    914    852   -223   -102    -45       C  
  393  C   SER A  69      719    982    840   -114    106     43       C  
  394  O   SER A  69      716    893    814    -21     27    197       O  
  395  CB  SER A  69      882    883   1081    -65     10    140       C  
  396  OG  SER A  69     1161    875    955   -455   -128    293       O  
 2228  C3  2UL A 301     2054   1708   1282   -330   -242    176       C  
 2229  C4  2UL A 301     2489   1998   1678   -162   -423    389       C  
 2230  C5  2UL A 301     2521   2395   1780     78   -563    572       C  
 2231  C6  2UL A 301     2287   2402    560   -101    -90     68       C  
 2232  C7  2UL A 301     1959   2211   1344   -523    -77   -218       C  
 2233  C2  2UL A 301     1611   1274   1373     29   -165   -211       C  
 2234  C1  2UL A 301     1354    926   1165   -249   -176      4       C  
 2235  N2  2UL A 301     1282   1435   2043   -168   -217    744       N  
 2236  C8  2UL A 301     1288   1785   1052   -350   -112    438       C  
 2237  O5  2UL A 301     1335   1422   1075   -461   -171    223       O  
 2238  N1  2UL A 301      967    893   1163   -217    -62    145       N  
 2239  C11 2UL A 301      907   1159   1682    -91   -166    336       C  
 2240  B   2UL A 301      956   1454   1500   -534   -369    187       B  
 2241  O4  2UL A 301     1445    894   1436   -199    -72    352       O  
 2242  O3  2UL A 301     1134    935    813   -290    -88     94       O  
 2243  C9  2UL A 301     1323   1138   1441     -3   -194    334       C  
 2244  C16 2UL A 301      790   1211   1212    292   -373    -73       C  
 2245  C17 2UL A 301     1141   1332   1352      0   -233    -79       C  
 2246  C21 2UL A 301     1318   1605   1458    273   -458    471       C  
 2247  C20 2UL A 301     1917   2280   1044    160   -255    -37       C  
 2248  C19 2UL A 301     1338   1631   1422      4   -176   -545       C  
 2249  C18 2UL A 301     1556   1127    900   -234    113    277       C  
 2250  C22 2UL A 301     1207   1039    763   -257    452    113       C  
 2251  O2  2UL A 301     1945    891   1608   -338    458    -19       O  
 2252  O1  2UL A 301     1722   1980   1353   -463    -76    180       O  

>  <MASTER>
      382    0    4   12    9    0   10    6 2430    1   40   21          

$$$$
