start_structures/Ligand_Substrate/Ligand_Complex_Stripped/3VT_4WYY.pdb
 OpenBabel08222315213D

 29 31  0  0  1  0  0  0  0  0999 V2000
   -7.1200   -7.8240   16.6390 N   0  0  0  0  0  0  0  0  0  0  0  0
   -6.7180   -7.0100   17.8030 C   0  0  2  0  0  0  0  0  0  0  0  0
   -6.4480   -5.5420   17.5190 C   0  0  0  0  0  0  0  0  0  0  0  0
   -6.2820   -4.7800   18.4720 O   0  0  0  0  0  0  0  0  0  0  0  0
   -5.5200   -7.6250   18.4880 C   0  0  0  0  0  0  0  0  0  0  0  0
   -5.8510   -8.9380   18.9320 O   0  0  0  0  0  0  0  0  0  0  0  0
   -6.6030  -12.2120   19.2740 C   0  0  0  0  0  0  0  0  0  0  0  0
   -6.4860  -13.5600   19.5850 C   0  0  0  0  0  0  0  0  0  0  0  0
   -5.2480  -14.2050   19.6390 C   0  0  0  0  0  0  0  0  0  0  0  0
   -5.6040  -10.0530   16.9440 O   0  0  0  0  0  0  0  0  0  0  0  0
   -2.5950  -11.5040   17.1450 C   0  0  0  0  0  0  0  0  0  0  0  0
   -1.7700  -10.4180   16.4870 C   0  0  0  0  0  0  0  0  0  0  0  0
   -2.7250  -14.1540   19.3870 C   0  0  0  0  0  0  0  0  0  0  0  0
   -5.1450  -15.6620   20.0180 C   0  0  0  0  0  0  0  0  0  0  0  0
   -8.5500  -14.5890   18.8590 C   0  0  0  0  0  0  0  0  0  0  0  0
   -8.2310  -14.2600   17.5150 C   0  0  0  0  0  0  0  0  0  0  0  0
  -10.2080  -15.1780   16.8500 C   0  0  0  0  0  0  0  0  0  0  0  0
  -10.5020  -15.5090   18.1640 C   0  0  0  0  0  0  0  0  0  0  0  0
   -0.9040   -9.8570   17.2270 O   0  0  0  0  0  0  0  0  0  0  0  0
   -1.9170  -10.1040   15.2970 O   0  0  0  0  0  0  0  0  0  0  0  0
   -3.1320  -11.1550   18.5650 C   0  0  1  0  0  0  0  0  0  0  0  0
   -3.7750   -9.8910   18.5450 O   0  0  0  0  0  0  0  0  0  0  0  0
   -5.1130  -10.0910   18.2170 B   0  0  1  0  0  0  0  0  0  0  0  0
   -4.2090  -12.1170   19.0160 C   0  0  0  0  0  0  0  0  0  0  0  0
   -5.4720  -11.4550   18.9330 C   0  0  0  0  0  0  0  0  0  0  0  0
   -4.0850  -13.4800   19.3450 C   0  0  0  0  0  0  0  0  0  0  0  0
   -7.6540  -14.3120   19.8570 O   0  0  0  0  0  0  0  0  0  0  0  0
   -9.6760  -15.2030   19.1830 N   0  0  0  0  0  0  0  0  0  0  0  0
   -9.0740  -14.5590   16.5150 N   0  0  0  0  0  0  0  0  0  0  0  0
  2  1  1  6  0  0  0
  2  5  1  0  0  0  0
  3  2  1  0  0  0  0
  3  4  2  0  0  0  0
  5  6  1  0  0  0  0
  6 23  1  0  0  0  0
  7  8  2  0  0  0  0
  7 25  1  0  0  0  0
  8  9  1  0  0  0  0
  8 27  1  0  0  0  0
  9 14  1  0  0  0  0
  9 26  2  0  0  0  0
 11 12  1  0  0  0  0
 12 19  2  0  0  0  0
 12 20  1  0  0  0  0
 13 26  1  0  0  0  0
 15 16  1  0  0  0  0
 15 27  1  0  0  0  0
 15 28  2  0  0  0  0
 16 29  1  0  0  0  0
 17 18  1  0  0  0  0
 17 29  2  0  0  0  0
 18 28  1  0  0  0  0
 21 11  1  6  0  0  0
 21 22  1  0  0  0  0
 21 24  1  0  0  0  0
 22 23  1  0  0  0  0
 23 10  1  6  0  0  0
 23 25  1  0  0  0  0
 24 25  2  0  0  0  0
 24 26  1  0  0  0  0
M  END
>  <HEADER>
    HYDROLASE/HYDROLASE INHIBITOR           18-NOV-14   4WYY              

>  <TITLE>
    CRYSTAL STRUCTURE OF P. AERUGINOSA AMPC                               

>  <COMPND>
    MOL_ID: 1;                                                            
   2 MOLECULE: BETA-LACTAMASE;                                            
   3 CHAIN: A;                                                            
   4 SYNONYM: CEPHALOSPORINASE;                                           
   5 EC: 3.5.2.6;                                                         
   6 ENGINEERED: YES                                                      

>  <SOURCE>
    MOL_ID: 1;                                                            
   2 ORGANISM_SCIENTIFIC: PSEUDOMONAS AERUGINOSA (STRAIN ATCC 15692 /     
   3 PAO1 / 1C / PRS 101 / LMG 12228);                                    
   4 ORGANISM_TAXID: 208964;                                              
   5 STRAIN: ATCC 15692 / PAO1 / 1C / PRS 101 / LMG 12228;                
   6 GENE: AMPC, PA4110;                                                  
   7 EXPRESSION_SYSTEM: PSEUDOMONAS AERUGINOSA PAO1;                      
   8 EXPRESSION_SYSTEM_TAXID: 208964                                      

>  <KEYWDS>
    BETA LACTAMASE, INHIBITOR, HYDROLASE-HYDROLASE INHIBITOR COMPLEX      

>  <EXPDTA>
    X-RAY DIFFRACTION                                                     

>  <AUTHOR>
    A.D.FERGUSON                                                          

>  <REVDAT>
   2   25-APR-18 4WYY    1       JRNL   REMARK                            
   1   05-AUG-15 4WYY    0                                                

>  <JRNL>
      AUTH   D.C.MCKINNEY,F.ZHOU,C.J.EYERMANN,A.D.FERGUSON,D.B.PRINCE,    
      AUTH 2 J.BREEN,R.A.GIACOBBE,S.LAHIRI,J.C.VERHEIJEN                  
      TITL   4,5-DISUBSTITUTED                                            
      TITL 2 6-ARYLOXY-1,3-DIHYDROBENZO[C][1,2]OXABOROLES ARE             
      TITL 3 BROAD-SPECTRUM SERINE BETA-LACTAMASE INHIBITORS.             
      REF    ACS INFECT DIS                V.   1   310 2015              
      REFN                   ESSN 2373-8227                               
      PMID   27622821                                                     
      DOI    10.1021/ACSINFECDIS.5B00031                                  

>  <REMARK>
   2                                                                      
   2 RESOLUTION.    1.28 ANGSTROMS.                                       
   3                                                                      
   3 REFINEMENT.                                                          
   3   PROGRAM     : BUSTER 2.11.5                                        
   3   AUTHORS     : BRICOGNE,BLANC,BRANDL,FLENSBURG,KELLER,              
   3               : PACIOREK,ROVERSI,SHARFF,SMART,VONRHEIN,              
   3               : WOMACK,MATTHEWS,TEN EYCK,TRONRUD                     
   3                                                                      
   3  DATA USED IN REFINEMENT.                                            
   3   RESOLUTION RANGE HIGH (ANGSTROMS) : 1.28                           
   3   RESOLUTION RANGE LOW  (ANGSTROMS) : 53.12                          
   3   DATA CUTOFF            (SIGMA(F)) : 0.000                          
   3   COMPLETENESS FOR RANGE        (%) : 96.4                           
   3   NUMBER OF REFLECTIONS             : 84509                          
   3                                                                      
   3  FIT TO DATA USED IN REFINEMENT.                                     
   3   CROSS-VALIDATION METHOD           : THROUGHOUT                     
   3   FREE R VALUE TEST SET SELECTION   : RANDOM                         
   3   R VALUE     (WORKING + TEST SET)  : 0.168                          
   3   R VALUE            (WORKING SET)  : 0.167                          
   3   FREE R VALUE                      : 0.194                          
   3   FREE R VALUE TEST SET SIZE   (%)  : 5.000                          
   3   FREE R VALUE TEST SET COUNT       : 4226                           
   3   ESTIMATED ERROR OF FREE R VALUE   : NULL                           
   3                                                                      
   3  FIT IN THE HIGHEST RESOLUTION BIN.                                  
   3   TOTAL NUMBER OF BINS USED               : 20                       
   3   BIN RESOLUTION RANGE HIGH   (ANGSTROMS) : 1.28                     
   3   BIN RESOLUTION RANGE LOW    (ANGSTROMS) : 1.31                     
   3   BIN COMPLETENESS (WORKING+TEST)     (%) : 96.36                    
   3   REFLECTIONS IN BIN (WORKING + TEST SET) : 4795                     
   3   BIN R VALUE        (WORKING + TEST SET) : 0.1861                   
   3   REFLECTIONS IN BIN        (WORKING SET) : 4530                     
   3   BIN R VALUE               (WORKING SET) : 0.1849                   
   3   BIN FREE R VALUE                        : 0.2083                   
   3   BIN FREE R VALUE TEST SET SIZE      (%) : 5.53                     
   3   BIN FREE R VALUE TEST SET COUNT         : 265                      
   3   ESTIMATED ERROR OF BIN FREE R VALUE     : NULL                     
   3                                                                      
   3  NUMBER OF NON-HYDROGEN ATOMS USED IN REFINEMENT.                    
   3   PROTEIN ATOMS            : 2790                                    
   3   NUCLEIC ACID ATOMS       : 0                                       
   3   HETEROGEN ATOMS          : 51                                      
   3   SOLVENT ATOMS            : 369                                     
   3                                                                      
   3  B VALUES.                                                           
   3   FROM WILSON PLOT           (A**2) : 13.84                          
   3   MEAN B VALUE      (OVERALL, A**2) : 19.06                          
   3   OVERALL ANISOTROPIC B VALUE.                                       
   3    B11 (A**2) : 3.26080                                              
   3    B22 (A**2) : 0.32740                                              
   3    B33 (A**2) : -3.58830                                             
   3    B12 (A**2) : 0.00000                                              
   3    B13 (A**2) : 0.00000                                              
   3    B23 (A**2) : 0.00000                                              
   3                                                                      
   3  ESTIMATED COORDINATE ERROR.                                         
   3   ESD FROM LUZZATI PLOT                    (A) : 0.136               
   3   DPI (BLOW EQ-10) BASED ON R VALUE        (A) : 0.048               
   3   DPI (BLOW EQ-9) BASED ON FREE R VALUE    (A) : 0.051               
   3   DPI (CRUICKSHANK) BASED ON R VALUE       (A) : 0.046               
   3   DPI (CRUICKSHANK) BASED ON FREE R VALUE  (A) : 0.049               
   3                                                                      
   3   REFERENCES: BLOW, D. (2002) ACTA CRYST D58, 792-797                
   3               CRUICKSHANK, D.W.J. (1999) ACTA CRYST D55, 583-601     
   3                                                                      
   3 CORRELATION COEFFICIENTS.                                            
   3   CORRELATION COEFFICIENT FO-FC      : 0.956                         
   3   CORRELATION COEFFICIENT FO-FC FREE : 0.943                         
   3                                                                      
   3   NUMBER OF GEOMETRIC FUNCTION TERMS DEFINED : 15                    
   3   TERM                          COUNT    WEIGHT   FUNCTION.          
   3    BOND LENGTHS              : 2954   ; 2.000  ; HARMONIC            
   3    BOND ANGLES               : 4025   ; 2.000  ; HARMONIC            
   3    TORSION ANGLES            : 1011   ; 2.000  ; SINUSOIDAL          
   3    TRIGONAL CARBON PLANES    : 70     ; 2.000  ; HARMONIC            
   3    GENERAL PLANES            : 441    ; 5.000  ; HARMONIC            
   3    ISOTROPIC THERMAL FACTORS : 2954   ; 20.000 ; HARMONIC            
   3    BAD NON-BONDED CONTACTS   : NULL   ; NULL   ; NULL                
   3    IMPROPER TORSIONS         : NULL   ; NULL   ; NULL                
   3    PSEUDOROTATION ANGLES     : NULL   ; NULL   ; NULL                
   3    CHIRAL IMPROPER TORSION   : 361    ; 5.000  ; SEMIHARMONIC        
   3    SUM OF OCCUPANCIES        : NULL   ; NULL   ; NULL                
   3    UTILITY DISTANCES         : NULL   ; NULL   ; NULL                
   3    UTILITY ANGLES            : NULL   ; NULL   ; NULL                
   3    UTILITY TORSION           : NULL   ; NULL   ; NULL                
   3    IDEAL-DIST CONTACT TERM   : 3785   ; 4.000  ; SEMIHARMONIC        
   3                                                                      
   3   RMS DEVIATIONS FROM IDEAL VALUES.                                  
   3    BOND LENGTHS                       (A) : 0.010                    
   3    BOND ANGLES                  (DEGREES) : 1.05                     
   3    PEPTIDE OMEGA TORSION ANGLES (DEGREES) : 4.82                     
   3    OTHER TORSION ANGLES         (DEGREES) : 14.86                    
   3                                                                      
   3  TLS DETAILS                                                         
   3   NUMBER OF TLS GROUPS  : 1                                          
   3                                                                      
   3   TLS GROUP : 1                                                      
   3    SELECTION: { A|* }                                                
   3    ORIGIN FOR THE GROUP (A):   -6.2060   -2.9870   17.7378           
   3    T TENSOR                                                          
   3     T11:   -0.0375 T22:   -0.0338                                    
   3     T33:   -0.0356 T12:    0.0043                                    
   3     T13:    0.0014 T23:   -0.0017                                    
   3    L TENSOR                                                          
   3     L11:    0.6324 L22:    0.3532                                    
   3     L33:    0.4718 L12:   -0.0225                                    
   3     L13:    0.0463 L23:   -0.0737                                    
   3    S TENSOR                                                          
   3     S11:   -0.0176 S12:   -0.0477 S13:   -0.0209                     
   3     S21:    0.0002 S22:    0.0091 S23:    0.0039                     
   3     S31:   -0.0134 S32:   -0.0411 S33:    0.0085                     
   3                                                                      
   3  OTHER REFINEMENT REMARKS: NULL                                      
   4                                                                      
   4 4WYY COMPLIES WITH FORMAT V. 3.30, 13-JUL-11                         
 100                                                                      
 100 THIS ENTRY HAS BEEN PROCESSED BY RCSB ON 19-NOV-14.                  
 100 THE DEPOSITION ID IS D_1000204803.                                   
 200                                                                      
 200 EXPERIMENTAL DETAILS                                                 
 200  EXPERIMENT TYPE                : X-RAY DIFFRACTION                  
 200  DATE OF DATA COLLECTION        : 19-APR-12                          
 200  TEMPERATURE           (KELVIN) : 100                                
 200  PH                             : 6.6 - 7.2                          
 200  NUMBER OF CRYSTALS USED        : NULL                               
 200                                                                      
 200  SYNCHROTRON              (Y/N) : Y                                  
 200  RADIATION SOURCE               : APS                                
 200  BEAMLINE                       : 17-ID                              
 200  X-RAY GENERATOR MODEL          : NULL                               
 200  MONOCHROMATIC OR LAUE    (M/L) : M                                  
 200  WAVELENGTH OR RANGE        (A) : 1                                  
 200  MONOCHROMATOR                  : NULL                               
 200  OPTICS                         : NULL                               
 200                                                                      
 200  DETECTOR TYPE                  : PIXEL                              
 200  DETECTOR MANUFACTURER          : DECTRIS PILATUS 6M                 
 200  INTENSITY-INTEGRATION SOFTWARE : XDS                                
 200  DATA SCALING SOFTWARE          : AIMLESS                            
 200                                                                      
 200  NUMBER OF UNIQUE REFLECTIONS   : 84509                              
 200  RESOLUTION RANGE HIGH      (A) : 1.280                              
 200  RESOLUTION RANGE LOW       (A) : 53.120                             
 200  REJECTION CRITERIA  (SIGMA(I)) : NULL                               
 200                                                                      
 200 OVERALL.                                                             
 200  COMPLETENESS FOR RANGE     (%) : NULL                               
 200  DATA REDUNDANCY                : NULL                               
 200  R MERGE                    (I) : NULL                               
 200  R SYM                      (I) : NULL                               
 200  <I/SIGMA(I)> FOR THE DATA SET  : NULL                               
 200                                                                      
 200 IN THE HIGHEST RESOLUTION SHELL.                                     
 200  HIGHEST RESOLUTION SHELL, RANGE HIGH (A) : 1.28                     
 200  HIGHEST RESOLUTION SHELL, RANGE LOW  (A) : 1.35                     
 200  COMPLETENESS FOR SHELL     (%) : 78.8                               
 200  DATA REDUNDANCY IN SHELL       : 3.50                               
 200  R MERGE FOR SHELL          (I) : 0.24800                            
 200  R SYM FOR SHELL            (I) : NULL                               
 200  <I/SIGMA(I)> FOR SHELL         : 3.400                              
 200                                                                      
 200 DIFFRACTION PROTOCOL: SINGLE WAVELENGTH                              
 200 METHOD USED TO DETERMINE THE STRUCTURE: MOLECULAR REPLACEMENT        
 200 SOFTWARE USED: MOLREP                                                
 200 STARTING MODEL: 4OOY                                                 
 200                                                                      
 200 REMARK: NULL                                                         
 280                                                                      
 280 CRYSTAL                                                              
 280 SOLVENT CONTENT, VS   (%): 42.21                                     
 280 MATTHEWS COEFFICIENT, VM (ANGSTROMS**3/DA): 2.13                     
 280                                                                      
 280 CRYSTALLIZATION CONDITIONS: 20% PEG 3350, 10% ISOPROPANOL, 100 MM    
 280  IMIDAZOLE, PH 7, VAPOR DIFFUSION, HANGING DROP, TEMPERATURE 293K    
 290                                                                      
 290 CRYSTALLOGRAPHIC SYMMETRY                                            
 290 SYMMETRY OPERATORS FOR SPACE GROUP: P 21 21 21                       
 290                                                                      
 290      SYMOP   SYMMETRY                                                
 290     NNNMMM   OPERATOR                                                
 290       1555   X,Y,Z                                                   
 290       2555   -X+1/2,-Y,Z+1/2                                         
 290       3555   -X,Y+1/2,-Z+1/2                                         
 290       4555   X+1/2,-Y+1/2,-Z                                         
 290                                                                      
 290     WHERE NNN -> OPERATOR NUMBER                                     
 290           MMM -> TRANSLATION VECTOR                                  
 290                                                                      
 290 CRYSTALLOGRAPHIC SYMMETRY TRANSFORMATIONS                            
 290 THE FOLLOWING TRANSFORMATIONS OPERATE ON THE ATOM/HETATM             
 290 RECORDS IN THIS ENTRY TO PRODUCE CRYSTALLOGRAPHICALLY                
 290 RELATED MOLECULES.                                                   
 290   SMTRY1   1  1.000000  0.000000  0.000000        0.00000            
 290   SMTRY2   1  0.000000  1.000000  0.000000        0.00000            
 290   SMTRY3   1  0.000000  0.000000  1.000000        0.00000            
 290   SMTRY1   2 -1.000000  0.000000  0.000000       22.37250            
 290   SMTRY2   2  0.000000 -1.000000  0.000000        0.00000            
 290   SMTRY3   2  0.000000  0.000000  1.000000       53.11500            
 290   SMTRY1   3 -1.000000  0.000000  0.000000        0.00000            
 290   SMTRY2   3  0.000000  1.000000  0.000000       35.41200            
 290   SMTRY3   3  0.000000  0.000000 -1.000000       53.11500            
 290   SMTRY1   4  1.000000  0.000000  0.000000       22.37250            
 290   SMTRY2   4  0.000000 -1.000000  0.000000       35.41200            
 290   SMTRY3   4  0.000000  0.000000 -1.000000        0.00000            
 290                                                                      
 290 REMARK: NULL                                                         
 300                                                                      
 300 BIOMOLECULE: 1                                                       
 300 SEE REMARK 350 FOR THE AUTHOR PROVIDED AND/OR PROGRAM                
 300 GENERATED ASSEMBLY INFORMATION FOR THE STRUCTURE IN                  
 300 THIS ENTRY. THE REMARK MAY ALSO PROVIDE INFORMATION ON               
 300 BURIED SURFACE AREA.                                                 
 350                                                                      
 350 COORDINATES FOR A COMPLETE MULTIMER REPRESENTING THE KNOWN           
 350 BIOLOGICALLY SIGNIFICANT OLIGOMERIZATION STATE OF THE                
 350 MOLECULE CAN BE GENERATED BY APPLYING BIOMT TRANSFORMATIONS          
 350 GIVEN BELOW.  BOTH NON-CRYSTALLOGRAPHIC AND                          
 350 CRYSTALLOGRAPHIC OPERATIONS ARE GIVEN.                               
 350                                                                      
 350 BIOMOLECULE: 1                                                       
 350 AUTHOR DETERMINED BIOLOGICAL UNIT: MONOMERIC                         
 350 SOFTWARE DETERMINED QUATERNARY STRUCTURE: MONOMERIC                  
 350 SOFTWARE USED: PISA                                                  
 350 APPLY THE FOLLOWING TO CHAINS: A                                     
 350   BIOMT1   1  1.000000  0.000000  0.000000        0.00000            
 350   BIOMT2   1  0.000000  1.000000  0.000000        0.00000            
 350   BIOMT3   1  0.000000  0.000000  1.000000        0.00000            
 500                                                                      
 500 GEOMETRY AND STEREOCHEMISTRY                                         
 500 SUBTOPIC: TORSION ANGLES                                             
 500                                                                      
 500 TORSION ANGLES OUTSIDE THE EXPECTED RAMACHANDRAN REGIONS:            
 500 (M=MODEL NUMBER; RES=RESIDUE NAME; C=CHAIN IDENTIFIER;               
 500 SSEQ=SEQUENCE NUMBER; I=INSERTION CODE).                             
 500                                                                      
 500 STANDARD TABLE:                                                      
 500 FORMAT:(10X,I3,1X,A3,1X,A1,I4,A1,4X,F7.2,3X,F7.2)                    
 500                                                                      
 500 EXPECTED VALUES: GJ KLEYWEGT AND TA JONES (1996). PHI/PSI-           
 500 CHOLOGY: RAMACHANDRAN REVISITED. STRUCTURE 4, 1395 - 1400            
 500                                                                      
 500  M RES CSSEQI        PSI       PHI                                   
 500    GLN A 204      -51.87   -121.67                                   
 500    TYR A 249       22.42   -161.48                                   
 500                                                                      
 500 REMARK: NULL                                                         
 525                                                                      
 525 SOLVENT                                                              
 525                                                                      
 525 THE SOLVENT MOLECULES HAVE CHAIN IDENTIFIERS THAT                    
 525 INDICATE THE POLYMER CHAIN WITH WHICH THEY ARE MOST                  
 525 CLOSELY ASSOCIATED. THE REMARK LISTS ALL THE SOLVENT                 
 525 MOLECULES WHICH ARE MORE THAN 5A AWAY FROM THE                       
 525 NEAREST POLYMER CHAIN (M = MODEL NUMBER;                             
 525 RES=RESIDUE NAME; C=CHAIN IDENTIFIER; SSEQ=SEQUENCE                  
 525 NUMBER; I=INSERTION CODE):                                           
 525                                                                      
 525  M RES CSSEQI                                                        
 525    HOH A 821        DISTANCE =  5.94 ANGSTROMS                       
 800                                                                      
 800 SITE                                                                 
 800 SITE_IDENTIFIER: AC1                                                 
 800 EVIDENCE_CODE: SOFTWARE                                              
 800 SITE_DESCRIPTION: binding site for residue GOL A 401                 
 800                                                                      
 800 SITE_IDENTIFIER: AC2                                                 
 800 EVIDENCE_CODE: SOFTWARE                                              
 800 SITE_DESCRIPTION: binding site for residue GOL A 402                 
 800                                                                      
 800 SITE_IDENTIFIER: AC3                                                 
 800 EVIDENCE_CODE: SOFTWARE                                              
 800 SITE_DESCRIPTION: binding site for residue GOL A 403                 
 800                                                                      
 800 SITE_IDENTIFIER: AC4                                                 
 800 EVIDENCE_CODE: SOFTWARE                                              
 800 SITE_DESCRIPTION: binding site for residue GOL A 404                 
 800                                                                      
 800 SITE_IDENTIFIER: AC5                                                 
 800 EVIDENCE_CODE: SOFTWARE                                              
 800 SITE_DESCRIPTION: binding site for residue DMS A 405                 
 800                                                                      
 800 SITE_IDENTIFIER: AC6                                                 
 800 EVIDENCE_CODE: SOFTWARE                                              
 800 SITE_DESCRIPTION: binding site for residue 3VT A 406                 
 900                                                                      
 900 RELATED ENTRIES                                                      
 900 RELATED ID: 4WZ4   RELATED DB: PDB                                   
 900 RELATED ID: 4WZ5   RELATED DB: PDB                                   

>  <DBREF>
 4WYY A   29   388  UNP    P24735   AMPC_PSEAE      29    388             

>  <SEQRES>
   1 A  360  ALA PRO ALA ASP ARG LEU LYS ALA LEU VAL ASP ALA ALA          
   2 A  360  VAL GLN PRO VAL MET LYS ALA ASN ASP ILE PRO GLY LEU          
   3 A  360  ALA VAL ALA ILE SER LEU LYS GLY GLU PRO HIS TYR PHE          
   4 A  360  SER TYR GLY LEU ALA SER LYS GLU ASP GLY ARG ARG VAL          
   5 A  360  THR PRO GLU THR LEU PHE GLU ILE GLY SER VAL SER LYS          
   6 A  360  THR PHE THR ALA THR LEU ALA GLY TYR ALA LEU THR GLN          
   7 A  360  ASP LYS MET ARG LEU ASP ASP ARG ALA SER GLN HIS TRP          
   8 A  360  PRO ALA LEU GLN GLY SER ARG PHE ASP GLY ILE SER LEU          
   9 A  360  LEU ASP LEU ALA THR TYR THR ALA GLY GLY LEU PRO LEU          
  10 A  360  GLN PHE PRO ASP SER VAL GLN LYS ASP GLN ALA GLN ILE          
  11 A  360  ARG ASP TYR TYR ARG GLN TRP GLN PRO THR TYR ALA PRO          
  12 A  360  GLY SER GLN ARG LEU TYR SER ASN PRO SER ILE GLY LEU          
  13 A  360  PHE GLY TYR LEU ALA ALA ARG SER LEU GLY GLN PRO PHE          
  14 A  360  GLU ARG LEU MET GLU GLN GLN VAL PHE PRO ALA LEU GLY          
  15 A  360  LEU GLU GLN THR HIS LEU ASP VAL PRO GLU ALA ALA LEU          
  16 A  360  ALA GLN TYR ALA GLN GLY TYR GLY LYS ASP ASP ARG PRO          
  17 A  360  LEU ARG VAL GLY PRO GLY PRO LEU ASP ALA GLU GLY TYR          
  18 A  360  GLY VAL LYS THR SER ALA ALA ASP LEU LEU ARG PHE VAL          
  19 A  360  ASP ALA ASN LEU HIS PRO GLU ARG LEU ASP ARG PRO TRP          
  20 A  360  ALA GLN ALA LEU ASP ALA THR HIS ARG GLY TYR TYR LYS          
  21 A  360  VAL GLY ASP MET THR GLN GLY LEU GLY TRP GLU ALA TYR          
  22 A  360  ASP TRP PRO ILE SER LEU LYS ARG LEU GLN ALA GLY ASN          
  23 A  360  SER THR PRO MET ALA LEU GLN PRO HIS ARG ILE ALA ARG          
  24 A  360  LEU PRO ALA PRO GLN ALA LEU GLU GLY GLN ARG LEU LEU          
  25 A  360  ASN LYS THR GLY SER THR ASN GLY PHE GLY ALA TYR VAL          
  26 A  360  ALA PHE VAL PRO GLY ARG ASP LEU GLY LEU VAL ILE LEU          
  27 A  360  ALA ASN ARG ASN TYR PRO ASN ALA GLU ARG VAL LYS ILE          
  28 A  360  ALA TYR ALA ILE LEU SER GLY LEU GLU                          

>  <HET>
 GOL  A 401       6                                                       
 GOL  A 402       6                                                       
 GOL  A 403       6                                                       
 GOL  A 404       6                                                       
 DMS  A 405       4                                                       
 3VT  A 406      23                                                       

>  <HETNAM>
     GOL GLYCEROL                                                         
     DMS DIMETHYL SULFOXIDE                                               
     3VT [(3R)-1-HYDROXY-4,5-DIMETHYL-6-(PYRAZIN-2-YLOXY)-1,3-            
   2 3VT  DIHYDRO-2,1-BENZOXABOROL-3-YL]ACETIC ACID                       

>  <HETSYN>
     GOL GLYCERIN; PROPANE-1,2,3-TRIOL                                    

>  <FORMUL>
   2  GOL    4(C3 H8 O3)                                                  
   6  DMS    C2 H6 O S                                                    
   7  3VT    C15 H15 B N2 O5                                              
   8  HOH   *369(H2 O)                                                    

>  <HELIX>
   1 AA1 ALA A   29  ASN A   49  1                                  21    
   2 AA2 VAL A   91  GLN A  106  1                                  16    
   3 AA3 ARG A  114  GLN A  123  5                                  10    
   4 AA4 SER A  125  ILE A  130  5                                   6    
   5 AA5 SER A  131  THR A  137  1                                   7    
   6 AA6 ASP A  154  TRP A  165  1                                  12    
   7 AA7 SER A  178  LEU A  193  1                                  16    
   8 AA8 PRO A  196  GLN A  204  1                                   9    
   9 AA9 GLN A  204  LEU A  209  1                                   6    
  10 AB1 PRO A  219  TYR A  226  5                                   8    
  11 AB2 GLY A  231  ARG A  235  5                                   5    
  12 AB3 LEU A  244  GLY A  250  1                                   7    
  13 AB4 ALA A  255  HIS A  267  1                                  13    
  14 AB5 PRO A  268  LEU A  271  5                                   4    
  15 AB6 ASP A  272  ALA A  281  1                                  10    
  16 AB7 SER A  306  ASN A  314  1                                   9    
  17 AB8 SER A  315  GLN A  321  1                                   7    
  18 AB9 PRO A  357  ARG A  359  5                                   3    
  19 AC1 PRO A  372  GLU A  388  1                                  17    

>  <SHEET>
   1 AA110 ARG A  78  ARG A  79  0                                        
   2 AA110 GLU A  63  SER A  73 -1  N  ALA A  72   O  ARG A  78           
   3 AA110 GLY A  53  LEU A  60 -1  N  VAL A  56   O  PHE A  67           
   4 AA110 LEU A 361  ALA A 367 -1  O  LEU A 366   N  ALA A  55           
   5 AA110 PHE A 349  VAL A 356 -1  N  VAL A 356   O  LEU A 361           
   6 AA110 ARG A 338  THR A 346 -1  N  GLY A 344   O  ALA A 351           
   7 AA110 GLU A 299  ASP A 302 -1  N  TYR A 301   O  LEU A 339           
   8 AA110 MET A 292  GLN A 294 -1  N  THR A 293   O  ALA A 300           
   9 AA110 ARG A 284  VAL A 289 -1  N  TYR A 286   O  GLN A 294           
  10 AA110 ALA A 326  ALA A 333 -1  O  GLN A 332   N  GLY A 285           
   1 AA2 3 LEU A  85  GLU A  87  0                                        
   2 AA2 3 LYS A 252  SER A 254 -1  O  THR A 253   N  PHE A  86           
   3 AA2 3 THR A 214  HIS A 215 -1  N  HIS A 215   O  LYS A 252           
   1 AA3 2 GLN A 174  ARG A 175  0                                        
   2 AA3 2 HIS A 323  ARG A 324 -1  O  HIS A 323   N  ARG A 175           

>  <LINK>
       OG  SER A  90                 B   3VT A 406     1555   1555  1.54  

>  <CISPEP>
   1 TRP A  303    PRO A  304          0         8.84                     

>  <SITE>
   1 AC1 10 ARG A 175  TYR A 177  GLU A 299  MET A 318                    
   2 AC1 10 LYS A 342  THR A 343  3VT A 406  HOH A 678                    
   3 AC1 10 HOH A 704  HOH A 708                                          
   1 AC2  8 THR A 316  ALA A 319  ASN A 373  3VT A 406                    
   2 AC2  8 HOH A 732  HOH A 744  HOH A 762  HOH A 846                    
   1 AC3  5 ASP A 160  TRP A 275  HOH A 502  HOH A 532                    
   2 AC3  5 HOH A 544                                                     
   1 AC4  9 GLU A 269  ARG A 273  ALA A 276  GLN A 277                    
   2 AC4  9 ASP A 280  GLN A 321  PRO A 322  HOH A 514                    
   3 AC4  9 HOH A 518                                                     
   1 AC5  3 ASN A 347  ASN A 370  3VT A 406                               
   1 AC6 14 SER A  90  TYR A 177  ASN A 179  TYR A 249                    
   2 AC6 14 THR A 343  GLY A 344  SER A 345  THR A 346                    
   3 AC6 14 ASN A 373  ARG A 376  GOL A 401  GOL A 402                    
   4 AC6 14 DMS A 405  HOH A 856                                          

>  <ORIGX1>
      1.000000  0.000000  0.000000        0.00000                         

>  <ORIGX2>
      0.000000  1.000000  0.000000        0.00000                         

>  <ORIGX3>
      0.000000  0.000000  1.000000        0.00000                         

>  <SCALE1>
      0.022349  0.000000  0.000000        0.00000                         

>  <SCALE2>
      0.000000  0.014120  0.000000        0.00000                         

>  <SCALE3>
      0.000000  0.000000  0.009414        0.00000                         

>  <ANISOU>
  458  N   SER A  90     1058   1080   1147      0     29     10       N  
  459  CA  SER A  90     1079   1122   1157     13     29     17       C  
  460  C   SER A  90     1045   1085   1099     24     24      2       C  
  461  O   SER A  90     1145   1201   1188     34     22      3       O  
  462  CB  SER A  90     1059   1093   1145     16     33     30       C  
  463  OG  SER A  90     1225   1259   1335      7     37     50       O  

>  <MASTER>
      290    0    6   19   15    0   15    6 3210    1   52   28          

$$$$
