start_structures/Ligand_Substrate/Ligand_Complex_Stripped/3VU_4WZ4.pdb
 OpenBabel08222315213D

 29 31  0  0  1  0  0  0  0  0999 V2000
   -7.2550   -8.0860   16.7240 N   0  0  0  0  0  0  0  0  0  0  0  0
   -6.8450   -7.2810   17.8740 C   0  0  2  0  0  0  0  0  0  0  0  0
   -6.5800   -5.7990   17.6040 C   0  0  0  0  0  0  0  0  0  0  0  0
   -6.4060   -5.0700   18.5580 O   0  0  0  0  0  0  0  0  0  0  0  0
   -5.6400   -7.8910   18.5460 C   0  0  0  0  0  0  0  0  0  0  0  0
   -5.9560   -9.1990   19.0250 O   0  0  0  0  0  0  0  0  0  0  0  0
   -6.6170  -12.4840   19.3580 C   0  0  0  0  0  0  0  0  0  0  0  0
   -6.4610  -13.8300   19.6830 C   0  0  0  0  0  0  0  0  0  0  0  0
   -5.2160  -14.4560   19.7150 C   0  0  0  0  0  0  0  0  0  0  0  0
   -5.7120  -10.3280   16.9990 O   0  0  0  0  0  0  0  0  0  0  0  0
   -2.6930  -11.6950   17.1130 C   0  0  0  0  0  0  0  0  0  0  0  0
   -1.8490  -10.5800   16.5190 C   0  0  0  0  0  0  0  0  0  0  0  0
   -2.7040  -14.3270   19.3830 C   0  0  0  0  0  0  0  0  0  0  0  0
   -5.0890  -15.9250   20.0520 C   0  0  0  0  0  0  0  0  0  0  0  0
   -8.5190  -14.8380   19.0760 C   0  0  0  0  0  0  0  0  0  0  0  0
  -10.3010  -15.6780   18.1610 C   0  0  0  0  0  0  0  0  0  0  0  0
   -0.9840   -9.9990   17.2580 O   0  0  0  0  0  0  0  0  0  0  0  0
   -2.0680  -10.2520   15.3540 O   0  0  0  0  0  0  0  0  0  0  0  0
   -3.2060  -11.3890   18.5180 C   0  0  1  0  0  0  0  0  0  0  0  0
   -3.8930  -10.1200   18.5660 O   0  0  0  0  0  0  0  0  0  0  0  0
   -5.2470  -10.3440   18.2890 B   0  0  1  0  0  0  0  0  0  0  0  0
   -4.2620  -12.3500   19.0260 C   0  0  0  0  0  0  0  0  0  0  0  0
   -5.5000  -11.6920   19.0330 C   0  0  0  0  0  0  0  0  0  0  0  0
   -4.0790  -13.6970   19.3860 C   0  0  0  0  0  0  0  0  0  0  0  0
   -7.6080  -14.5770   20.0540 O   0  0  0  0  0  0  0  0  0  0  0  0
   -8.4670  -14.2210   17.4320 S   0  0  0  0  0  0  0  0  0  0  0  0
   -9.8780  -15.0050   17.0800 N   0  0  0  0  0  0  0  0  0  0  0  0
   -9.5940  -15.5950   19.3020 N   0  0  0  0  0  0  0  0  0  0  0  0
  -11.4150  -16.4110   18.1240 N   0  0  0  0  0  0  0  0  0  0  0  0
  2  1  1  6  0  0  0
  2  5  1  0  0  0  0
  3  2  1  0  0  0  0
  3  4  2  0  0  0  0
  5  6  1  0  0  0  0
  6 21  1  0  0  0  0
  7  8  2  0  0  0  0
  7 23  1  0  0  0  0
  8  9  1  0  0  0  0
  8 25  1  0  0  0  0
  9 14  1  0  0  0  0
  9 24  2  0  0  0  0
 11 12  1  0  0  0  0
 12 17  2  0  0  0  0
 12 18  1  0  0  0  0
 13 24  1  0  0  0  0
 15 25  1  0  0  0  0
 15 26  1  0  0  0  0
 15 28  2  0  0  0  0
 16 27  2  0  0  0  0
 16 28  1  0  0  0  0
 16 29  1  0  0  0  0
 19 11  1  6  0  0  0
 19 20  1  0  0  0  0
 19 22  1  0  0  0  0
 20 21  1  0  0  0  0
 21 10  1  6  0  0  0
 21 23  1  0  0  0  0
 22 23  2  0  0  0  0
 22 24  1  0  0  0  0
 26 27  1  0  0  0  0
M  END
>  <HEADER>
    HYDROLASE/HYDROLASE INHIBITOR           18-NOV-14   4WZ4              

>  <TITLE>
    CRYSTAL STRUCTURE OF P. AERUGINOSA AMPC                               

>  <COMPND>
    MOL_ID: 1;                                                            
   2 MOLECULE: BETA-LACTAMASE;                                            
   3 CHAIN: A;                                                            
   4 SYNONYM: CEPHALOSPORINASE;                                           
   5 EC: 3.5.2.6;                                                         
   6 ENGINEERED: YES                                                      

>  <SOURCE>
    MOL_ID: 1;                                                            
   2 ORGANISM_SCIENTIFIC: PSEUDOMONAS AERUGINOSA PAO1;                    
   3 ORGANISM_TAXID: 208964;                                              
   4 STRAIN: ATCC 15692 / PAO1 / 1C / PRS 101 / LMG 12228;                
   5 GENE: AMPC, PA4110;                                                  
   6 EXPRESSION_SYSTEM: PSEUDOMONAS AERUGINOSA PAO1;                      
   7 EXPRESSION_SYSTEM_TAXID: 208964                                      

>  <KEYWDS>
    BETA LACTAMASE, INHIBITOR, HYDROLASE-HYDROLASE INHIBITOR COMPLEX      

>  <EXPDTA>
    X-RAY DIFFRACTION                                                     

>  <AUTHOR>
    A.D.FERGUSON                                                          

>  <REVDAT>
   2   25-APR-18 4WZ4    1       SOURCE JRNL   REMARK                     
   1   05-AUG-15 4WZ4    0                                                

>  <JRNL>
      AUTH   D.C.MCKINNEY,F.ZHOU,C.J.EYERMANN,A.D.FERGUSON,D.B.PRINCE,    
      AUTH 2 J.BREEN,R.A.GIACOBBE,S.LAHIRI,J.C.VERHEIJEN                  
      TITL   4,5-DISUBSTITUTED                                            
      TITL 2 6-ARYLOXY-1,3-DIHYDROBENZO[C][1,2]OXABOROLES ARE             
      TITL 3 BROAD-SPECTRUM SERINE BETA-LACTAMASE INHIBITORS.             
      REF    ACS INFECT DIS                V.   1   310 2015              
      REFN                   ESSN 2373-8227                               
      PMID   27622821                                                     
      DOI    10.1021/ACSINFECDIS.5B00031                                  

>  <REMARK>
   2                                                                      
   2 RESOLUTION.    1.05 ANGSTROMS.                                       
   3                                                                      
   3 REFINEMENT.                                                          
   3   PROGRAM     : BUSTER 2.11.5                                        
   3   AUTHORS     : BRICOGNE,BLANC,BRANDL,FLENSBURG,KELLER,              
   3               : PACIOREK,ROVERSI,SHARFF,SMART,VONRHEIN,              
   3               : WOMACK,MATTHEWS,TEN EYCK,TRONRUD                     
   3                                                                      
   3  DATA USED IN REFINEMENT.                                            
   3   RESOLUTION RANGE HIGH (ANGSTROMS) : 1.05                           
   3   RESOLUTION RANGE LOW  (ANGSTROMS) : 50.00                          
   3   DATA CUTOFF            (SIGMA(F)) : 0.000                          
   3   COMPLETENESS FOR RANGE        (%) : 92.6                           
   3   NUMBER OF REFLECTIONS             : 148389                         
   3                                                                      
   3  FIT TO DATA USED IN REFINEMENT.                                     
   3   CROSS-VALIDATION METHOD           : THROUGHOUT                     
   3   FREE R VALUE TEST SET SELECTION   : RANDOM                         
   3   R VALUE     (WORKING + TEST SET)  : 0.187                          
   3   R VALUE            (WORKING SET)  : 0.187                          
   3   FREE R VALUE                      : 0.199                          
   3   FREE R VALUE TEST SET SIZE   (%)  : 5.020                          
   3   FREE R VALUE TEST SET COUNT       : 7454                           
   3   ESTIMATED ERROR OF FREE R VALUE   : NULL                           
   3                                                                      
   3  FIT IN THE HIGHEST RESOLUTION BIN.                                  
   3   TOTAL NUMBER OF BINS USED               : 20                       
   3   BIN RESOLUTION RANGE HIGH   (ANGSTROMS) : 1.05                     
   3   BIN RESOLUTION RANGE LOW    (ANGSTROMS) : 1.08                     
   3   BIN COMPLETENESS (WORKING+TEST)     (%) : 92.60                    
   3   REFLECTIONS IN BIN (WORKING + TEST SET) : 5204                     
   3   BIN R VALUE        (WORKING + TEST SET) : 0.2840                   
   3   REFLECTIONS IN BIN        (WORKING SET) : 4937                     
   3   BIN R VALUE               (WORKING SET) : 0.2846                   
   3   BIN FREE R VALUE                        : 0.2722                   
   3   BIN FREE R VALUE TEST SET SIZE      (%) : 5.13                     
   3   BIN FREE R VALUE TEST SET COUNT         : 267                      
   3   ESTIMATED ERROR OF BIN FREE R VALUE     : NULL                     
   3                                                                      
   3  NUMBER OF NON-HYDROGEN ATOMS USED IN REFINEMENT.                    
   3   PROTEIN ATOMS            : 2790                                    
   3   NUCLEIC ACID ATOMS       : 0                                       
   3   HETEROGEN ATOMS          : 29                                      
   3   SOLVENT ATOMS            : 432                                     
   3                                                                      
   3  B VALUES.                                                           
   3   FROM WILSON PLOT           (A**2) : 6.69                           
   3   MEAN B VALUE      (OVERALL, A**2) : 11.92                          
   3   OVERALL ANISOTROPIC B VALUE.                                       
   3    B11 (A**2) : 0.48780                                              
   3    B22 (A**2) : -0.62680                                             
   3    B33 (A**2) : 0.13900                                              
   3    B12 (A**2) : 0.00000                                              
   3    B13 (A**2) : 0.00000                                              
   3    B23 (A**2) : 0.00000                                              
   3                                                                      
   3  ESTIMATED COORDINATE ERROR.                                         
   3   ESD FROM LUZZATI PLOT                    (A) : 0.123               
   3   DPI (BLOW EQ-10) BASED ON R VALUE        (A) : 0.033               
   3   DPI (BLOW EQ-9) BASED ON FREE R VALUE    (A) : 0.033               
   3   DPI (CRUICKSHANK) BASED ON R VALUE       (A) : 0.031               
   3   DPI (CRUICKSHANK) BASED ON FREE R VALUE  (A) : 0.032               
   3                                                                      
   3   REFERENCES: BLOW, D. (2002) ACTA CRYST D58, 792-797                
   3               CRUICKSHANK, D.W.J. (1999) ACTA CRYST D55, 583-601     
   3                                                                      
   3 CORRELATION COEFFICIENTS.                                            
   3   CORRELATION COEFFICIENT FO-FC      : 0.910                         
   3   CORRELATION COEFFICIENT FO-FC FREE : 0.940                         
   3                                                                      
   3   NUMBER OF GEOMETRIC FUNCTION TERMS DEFINED : 15                    
   3   TERM                          COUNT    WEIGHT   FUNCTION.          
   3    BOND LENGTHS              : 2977   ; 2.000  ; HARMONIC            
   3    BOND ANGLES               : 4073   ; 2.000  ; HARMONIC            
   3    TORSION ANGLES            : 1033   ; 2.000  ; SINUSOIDAL          
   3    TRIGONAL CARBON PLANES    : 74     ; 2.000  ; HARMONIC            
   3    GENERAL PLANES            : 453    ; 5.000  ; HARMONIC            
   3    ISOTROPIC THERMAL FACTORS : 2977   ; 20.000 ; HARMONIC            
   3    BAD NON-BONDED CONTACTS   : NULL   ; NULL   ; NULL                
   3    IMPROPER TORSIONS         : NULL   ; NULL   ; NULL                
   3    PSEUDOROTATION ANGLES     : NULL   ; NULL   ; NULL                
   3    CHIRAL IMPROPER TORSION   : 368    ; 5.000  ; SEMIHARMONIC        
   3    SUM OF OCCUPANCIES        : NULL   ; NULL   ; NULL                
   3    UTILITY DISTANCES         : NULL   ; NULL   ; NULL                
   3    UTILITY ANGLES            : NULL   ; NULL   ; NULL                
   3    UTILITY TORSION           : NULL   ; NULL   ; NULL                
   3    IDEAL-DIST CONTACT TERM   : 3912   ; 4.000  ; SEMIHARMONIC        
   3                                                                      
   3   RMS DEVIATIONS FROM IDEAL VALUES.                                  
   3    BOND LENGTHS                       (A) : 0.010                    
   3    BOND ANGLES                  (DEGREES) : 1.04                     
   3    PEPTIDE OMEGA TORSION ANGLES (DEGREES) : 5.04                     
   3    OTHER TORSION ANGLES         (DEGREES) : 15.07                    
   3                                                                      
   3  TLS DETAILS                                                         
   3   NUMBER OF TLS GROUPS  : 1                                          
   3                                                                      
   3   TLS GROUP : 1                                                      
   3    SELECTION: { A|* }                                                
   3    ORIGIN FOR THE GROUP (A):   -6.3023   -3.0693   17.9207           
   3    T TENSOR                                                          
   3     T11:   -0.0410 T22:   -0.0277                                    
   3     T33:   -0.0271 T12:   -0.0004                                    
   3     T13:    0.0003 T23:   -0.0001                                    
   3    L TENSOR                                                          
   3     L11:    0.1417 L22:    0.2323                                    
   3     L33:    0.4260 L12:    0.0137                                    
   3     L13:   -0.0888 L23:   -0.0697                                    
   3    S TENSOR                                                          
   3     S11:   -0.0090 S12:   -0.0218 S13:   -0.0092                     
   3     S21:   -0.0038 S22:   -0.0016 S23:   -0.0023                     
   3     S31:   -0.0010 S32:   -0.0076 S33:    0.0107                     
   3                                                                      
   3  OTHER REFINEMENT REMARKS: NULL                                      
   4                                                                      
   4 4WZ4 COMPLIES WITH FORMAT V. 3.30, 13-JUL-11                         
 100                                                                      
 100 THIS ENTRY HAS BEEN PROCESSED BY RCSB ON 19-NOV-14.                  
 100 THE DEPOSITION ID IS D_1000204805.                                   
 200                                                                      
 200 EXPERIMENTAL DETAILS                                                 
 200  EXPERIMENT TYPE                : X-RAY DIFFRACTION                  
 200  DATE OF DATA COLLECTION        : 15-NOV-12                          
 200  TEMPERATURE           (KELVIN) : 100                                
 200  PH                             : 8                                  
 200  NUMBER OF CRYSTALS USED        : NULL                               
 200                                                                      
 200  SYNCHROTRON              (Y/N) : Y                                  
 200  RADIATION SOURCE               : APS                                
 200  BEAMLINE                       : 17-ID                              
 200  X-RAY GENERATOR MODEL          : NULL                               
 200  MONOCHROMATIC OR LAUE    (M/L) : M                                  
 200  WAVELENGTH OR RANGE        (A) : 1                                  
 200  MONOCHROMATOR                  : NULL                               
 200  OPTICS                         : NULL                               
 200                                                                      
 200  DETECTOR TYPE                  : PIXEL                              
 200  DETECTOR MANUFACTURER          : DECTRIS PILATUS 6M                 
 200  INTENSITY-INTEGRATION SOFTWARE : XDS                                
 200  DATA SCALING SOFTWARE          : AIMLESS                            
 200                                                                      
 200  NUMBER OF UNIQUE REFLECTIONS   : 148389                             
 200  RESOLUTION RANGE HIGH      (A) : 1.050                              
 200  RESOLUTION RANGE LOW       (A) : 50.000                             
 200  REJECTION CRITERIA  (SIGMA(I)) : NULL                               
 200                                                                      
 200 OVERALL.                                                             
 200  COMPLETENESS FOR RANGE     (%) : NULL                               
 200  DATA REDUNDANCY                : NULL                               
 200  R MERGE                    (I) : NULL                               
 200  R SYM                      (I) : NULL                               
 200  <I/SIGMA(I)> FOR THE DATA SET  : NULL                               
 200                                                                      
 200 IN THE HIGHEST RESOLUTION SHELL.                                     
 200  HIGHEST RESOLUTION SHELL, RANGE HIGH (A) : 1.05                     
 200  HIGHEST RESOLUTION SHELL, RANGE LOW  (A) : 1.11                     
 200  COMPLETENESS FOR SHELL     (%) : 66.4                               
 200  DATA REDUNDANCY IN SHELL       : 2.70                               
 200  R MERGE FOR SHELL          (I) : 0.49400                            
 200  R SYM FOR SHELL            (I) : NULL                               
 200  <I/SIGMA(I)> FOR SHELL         : 1.900                              
 200                                                                      
 200 DIFFRACTION PROTOCOL: SINGLE WAVELENGTH                              
 200 METHOD USED TO DETERMINE THE STRUCTURE: MOLECULAR REPLACEMENT        
 200 SOFTWARE USED: MOLREP                                                
 200 STARTING MODEL: NULL                                                 
 200                                                                      
 200 REMARK: NULL                                                         
 280                                                                      
 280 CRYSTAL                                                              
 280 SOLVENT CONTENT, VS   (%): 43.13                                     
 280 MATTHEWS COEFFICIENT, VM (ANGSTROMS**3/DA): 2.16                     
 280                                                                      
 280 CRYSTALLIZATION CONDITIONS: PEG, PH 8, VAPOR DIFFUSION, HANGING      
 280  DROP, TEMPERATURE 293K                                              
 290                                                                      
 290 CRYSTALLOGRAPHIC SYMMETRY                                            
 290 SYMMETRY OPERATORS FOR SPACE GROUP: P 21 21 21                       
 290                                                                      
 290      SYMOP   SYMMETRY                                                
 290     NNNMMM   OPERATOR                                                
 290       1555   X,Y,Z                                                   
 290       2555   -X+1/2,-Y,Z+1/2                                         
 290       3555   -X,Y+1/2,-Z+1/2                                         
 290       4555   X+1/2,-Y+1/2,-Z                                         
 290                                                                      
 290     WHERE NNN -> OPERATOR NUMBER                                     
 290           MMM -> TRANSLATION VECTOR                                  
 290                                                                      
 290 CRYSTALLOGRAPHIC SYMMETRY TRANSFORMATIONS                            
 290 THE FOLLOWING TRANSFORMATIONS OPERATE ON THE ATOM/HETATM             
 290 RECORDS IN THIS ENTRY TO PRODUCE CRYSTALLOGRAPHICALLY                
 290 RELATED MOLECULES.                                                   
 290   SMTRY1   1  1.000000  0.000000  0.000000        0.00000            
 290   SMTRY2   1  0.000000  1.000000  0.000000        0.00000            
 290   SMTRY3   1  0.000000  0.000000  1.000000        0.00000            
 290   SMTRY1   2 -1.000000  0.000000  0.000000       22.36500            
 290   SMTRY2   2  0.000000 -1.000000  0.000000        0.00000            
 290   SMTRY3   2  0.000000  0.000000  1.000000       53.65500            
 290   SMTRY1   3 -1.000000  0.000000  0.000000        0.00000            
 290   SMTRY2   3  0.000000  1.000000  0.000000       35.63500            
 290   SMTRY3   3  0.000000  0.000000 -1.000000       53.65500            
 290   SMTRY1   4  1.000000  0.000000  0.000000       22.36500            
 290   SMTRY2   4  0.000000 -1.000000  0.000000       35.63500            
 290   SMTRY3   4  0.000000  0.000000 -1.000000        0.00000            
 290                                                                      
 290 REMARK: NULL                                                         
 300                                                                      
 300 BIOMOLECULE: 1                                                       
 300 SEE REMARK 350 FOR THE AUTHOR PROVIDED AND/OR PROGRAM                
 300 GENERATED ASSEMBLY INFORMATION FOR THE STRUCTURE IN                  
 300 THIS ENTRY. THE REMARK MAY ALSO PROVIDE INFORMATION ON               
 300 BURIED SURFACE AREA.                                                 
 350                                                                      
 350 COORDINATES FOR A COMPLETE MULTIMER REPRESENTING THE KNOWN           
 350 BIOLOGICALLY SIGNIFICANT OLIGOMERIZATION STATE OF THE                
 350 MOLECULE CAN BE GENERATED BY APPLYING BIOMT TRANSFORMATIONS          
 350 GIVEN BELOW.  BOTH NON-CRYSTALLOGRAPHIC AND                          
 350 CRYSTALLOGRAPHIC OPERATIONS ARE GIVEN.                               
 350                                                                      
 350 BIOMOLECULE: 1                                                       
 350 AUTHOR DETERMINED BIOLOGICAL UNIT: MONOMERIC                         
 350 SOFTWARE DETERMINED QUATERNARY STRUCTURE: MONOMERIC                  
 350 SOFTWARE USED: PISA                                                  
 350 APPLY THE FOLLOWING TO CHAINS: A                                     
 350   BIOMT1   1  1.000000  0.000000  0.000000        0.00000            
 350   BIOMT2   1  0.000000  1.000000  0.000000        0.00000            
 350   BIOMT3   1  0.000000  0.000000  1.000000        0.00000            
 500                                                                      
 500 GEOMETRY AND STEREOCHEMISTRY                                         
 500 SUBTOPIC: TORSION ANGLES                                             
 500                                                                      
 500 TORSION ANGLES OUTSIDE THE EXPECTED RAMACHANDRAN REGIONS:            
 500 (M=MODEL NUMBER; RES=RESIDUE NAME; C=CHAIN IDENTIFIER;               
 500 SSEQ=SEQUENCE NUMBER; I=INSERTION CODE).                             
 500                                                                      
 500 STANDARD TABLE:                                                      
 500 FORMAT:(10X,I3,1X,A3,1X,A1,I4,A1,4X,F7.2,3X,F7.2)                    
 500                                                                      
 500 EXPECTED VALUES: GJ KLEYWEGT AND TA JONES (1996). PHI/PSI-           
 500 CHOLOGY: RAMACHANDRAN REVISITED. STRUCTURE 4, 1395 - 1400            
 500                                                                      
 500  M RES CSSEQI        PSI       PHI                                   
 500    TYR A 249       22.08   -160.54                                   
 500                                                                      
 500 REMARK: NULL                                                         
 525                                                                      
 525 SOLVENT                                                              
 525                                                                      
 525 THE SOLVENT MOLECULES HAVE CHAIN IDENTIFIERS THAT                    
 525 INDICATE THE POLYMER CHAIN WITH WHICH THEY ARE MOST                  
 525 CLOSELY ASSOCIATED. THE REMARK LISTS ALL THE SOLVENT                 
 525 MOLECULES WHICH ARE MORE THAN 5A AWAY FROM THE                       
 525 NEAREST POLYMER CHAIN (M = MODEL NUMBER;                             
 525 RES=RESIDUE NAME; C=CHAIN IDENTIFIER; SSEQ=SEQUENCE                  
 525 NUMBER; I=INSERTION CODE):                                           
 525                                                                      
 525  M RES CSSEQI                                                        
 525    HOH A 837        DISTANCE =  5.84 ANGSTROMS                       
 525    HOH A 882        DISTANCE =  5.86 ANGSTROMS                       
 525    HOH A 923        DISTANCE =  6.48 ANGSTROMS                       
 800                                                                      
 800 SITE                                                                 
 800 SITE_IDENTIFIER: AC1                                                 
 800 EVIDENCE_CODE: SOFTWARE                                              
 800 SITE_DESCRIPTION: binding site for residue GOL A 401                 
 800                                                                      
 800 SITE_IDENTIFIER: AC2                                                 
 800 EVIDENCE_CODE: SOFTWARE                                              
 800 SITE_DESCRIPTION: binding site for residue 3VU A 402                 
 900                                                                      
 900 RELATED ENTRIES                                                      
 900 RELATED ID: 4WYY   RELATED DB: PDB                                   
 900 RELATED ID: 4WZ5   RELATED DB: PDB                                   

>  <DBREF>
 4WZ4 A   29   388  UNP    P24735   AMPC_PSEAE      29    388             

>  <SEQRES>
   1 A  360  ALA PRO ALA ASP ARG LEU LYS ALA LEU VAL ASP ALA ALA          
   2 A  360  VAL GLN PRO VAL MET LYS ALA ASN ASP ILE PRO GLY LEU          
   3 A  360  ALA VAL ALA ILE SER LEU LYS GLY GLU PRO HIS TYR PHE          
   4 A  360  SER TYR GLY LEU ALA SER LYS GLU ASP GLY ARG ARG VAL          
   5 A  360  THR PRO GLU THR LEU PHE GLU ILE GLY SER VAL SER LYS          
   6 A  360  THR PHE THR ALA THR LEU ALA GLY TYR ALA LEU THR GLN          
   7 A  360  ASP LYS MET ARG LEU ASP ASP ARG ALA SER GLN HIS TRP          
   8 A  360  PRO ALA LEU GLN GLY SER ARG PHE ASP GLY ILE SER LEU          
   9 A  360  LEU ASP LEU ALA THR TYR THR ALA GLY GLY LEU PRO LEU          
  10 A  360  GLN PHE PRO ASP SER VAL GLN LYS ASP GLN ALA GLN ILE          
  11 A  360  ARG ASP TYR TYR ARG GLN TRP GLN PRO THR TYR ALA PRO          
  12 A  360  GLY SER GLN ARG LEU TYR SER ASN PRO SER ILE GLY LEU          
  13 A  360  PHE GLY TYR LEU ALA ALA ARG SER LEU GLY GLN PRO PHE          
  14 A  360  GLU ARG LEU MET GLU GLN GLN VAL PHE PRO ALA LEU GLY          
  15 A  360  LEU GLU GLN THR HIS LEU ASP VAL PRO GLU ALA ALA LEU          
  16 A  360  ALA GLN TYR ALA GLN GLY TYR GLY LYS ASP ASP ARG PRO          
  17 A  360  LEU ARG VAL GLY PRO GLY PRO LEU ASP ALA GLU GLY TYR          
  18 A  360  GLY VAL LYS THR SER ALA ALA ASP LEU LEU ARG PHE VAL          
  19 A  360  ASP ALA ASN LEU HIS PRO GLU ARG LEU ASP ARG PRO TRP          
  20 A  360  ALA GLN ALA LEU ASP ALA THR HIS ARG GLY TYR TYR LYS          
  21 A  360  VAL GLY ASP MET THR GLN GLY LEU GLY TRP GLU ALA TYR          
  22 A  360  ASP TRP PRO ILE SER LEU LYS ARG LEU GLN ALA GLY ASN          
  23 A  360  SER THR PRO MET ALA LEU GLN PRO HIS ARG ILE ALA ARG          
  24 A  360  LEU PRO ALA PRO GLN ALA LEU GLU GLY GLN ARG LEU LEU          
  25 A  360  ASN LYS THR GLY SER THR ASN GLY PHE GLY ALA TYR VAL          
  26 A  360  ALA PHE VAL PRO GLY ARG ASP LEU GLY LEU VAL ILE LEU          
  27 A  360  ALA ASN ARG ASN TYR PRO ASN ALA GLU ARG VAL LYS ILE          
  28 A  360  ALA TYR ALA ILE LEU SER GLY LEU GLU                          

>  <HET>
 GOL  A 401       6                                                       
 3VU  A 402      23                                                       

>  <HETNAM>
     GOL GLYCEROL                                                         
     3VU {(3R)-6-[(3-AMINO-1,2,4-THIADIAZOL-5-YL)OXY]-1-HYDROXY-          
   2 3VU  4,5-DIMETHYL-1,3-DIHYDRO-2,1-BENZOXABOROL-3-YL}ACETIC           
   3 3VU  ACID                                                            

>  <HETSYN>
     GOL GLYCERIN; PROPANE-1,2,3-TRIOL                                    

>  <FORMUL>
   2  GOL    C3 H8 O3                                                     
   3  3VU    C13 H14 B N3 O5 S                                            
   4  HOH   *432(H2 O)                                                    

>  <HELIX>
   1 AA1 ALA A   29  ASN A   49  1                                  21    
   2 AA2 VAL A   91  GLN A  106  1                                  16    
   3 AA3 ARG A  114  GLN A  123  5                                  10    
   4 AA4 SER A  125  ILE A  130  5                                   6    
   5 AA5 SER A  131  THR A  137  1                                   7    
   6 AA6 ASP A  154  TRP A  165  1                                  12    
   7 AA7 SER A  178  LEU A  193  1                                  16    
   8 AA8 PRO A  196  GLN A  204  1                                   9    
   9 AA9 GLN A  204  LEU A  209  1                                   6    
  10 AB1 PRO A  219  TYR A  226  5                                   8    
  11 AB2 GLY A  231  ARG A  235  5                                   5    
  12 AB3 LEU A  244  GLY A  250  1                                   7    
  13 AB4 ALA A  255  HIS A  267  1                                  13    
  14 AB5 PRO A  268  LEU A  271  5                                   4    
  15 AB6 ASP A  272  ALA A  281  1                                  10    
  16 AB7 SER A  306  ASN A  314  1                                   9    
  17 AB8 SER A  315  GLN A  321  1                                   7    
  18 AB9 PRO A  357  ARG A  359  5                                   3    
  19 AC1 PRO A  372  GLU A  388  1                                  17    

>  <SHEET>
   1 AA110 ARG A  78  ARG A  79  0                                        
   2 AA110 GLU A  63  SER A  73 -1  N  ALA A  72   O  ARG A  78           
   3 AA110 GLY A  53  LEU A  60 -1  N  VAL A  56   O  PHE A  67           
   4 AA110 LEU A 361  ALA A 367 -1  O  LEU A 366   N  ALA A  55           
   5 AA110 PHE A 349  VAL A 356 -1  N  VAL A 356   O  LEU A 361           
   6 AA110 ARG A 338  THR A 346 -1  N  GLY A 344   O  ALA A 351           
   7 AA110 GLU A 299  ASP A 302 -1  N  GLU A 299   O  ASN A 341           
   8 AA110 MET A 292  GLN A 294 -1  N  THR A 293   O  ALA A 300           
   9 AA110 ARG A 284  VAL A 289 -1  N  TYR A 286   O  GLN A 294           
  10 AA110 ALA A 326  ALA A 333 -1  O  GLN A 332   N  GLY A 285           
   1 AA2 3 LEU A  85  GLU A  87  0                                        
   2 AA2 3 LYS A 252  SER A 254 -1  O  THR A 253   N  PHE A  86           
   3 AA2 3 THR A 214  HIS A 215 -1  N  HIS A 215   O  LYS A 252           
   1 AA3 2 GLN A 174  ARG A 175  0                                        
   2 AA3 2 HIS A 323  ARG A 324 -1  O  HIS A 323   N  ARG A 175           

>  <LINK>
       OG  SER A  90                 B   3VU A 402     1555   1555  1.54  

>  <CISPEP>
   1 TRP A  303    PRO A  304          0         8.82                     

>  <SITE>
   1 AC1 10 GLU A 269  ARG A 273  ALA A 276  GLN A 277                    
   2 AC1 10 ASP A 280  GLN A 321  PRO A 322  HOH A 516                    
   3 AC1 10 HOH A 553  HOH A 888                                          
   1 AC2 13 SER A  90  GLN A 146  TYR A 177  ASN A 179                    
   2 AC2 13 TYR A 249  THR A 343  GLY A 344  SER A 345                    
   3 AC2 13 ASN A 373  ARG A 376  HOH A 712  HOH A 751                    
   4 AC2 13 HOH A 859                                                     

>  <ORIGX1>
      1.000000  0.000000  0.000000        0.00000                         

>  <ORIGX2>
      0.000000  1.000000  0.000000        0.00000                         

>  <ORIGX3>
      0.000000  0.000000  1.000000        0.00000                         

>  <SCALE1>
      0.022356  0.000000  0.000000        0.00000                         

>  <SCALE2>
      0.000000  0.014031  0.000000        0.00000                         

>  <SCALE3>
      0.000000  0.000000  0.009319        0.00000                         

>  <ANISOU>
  458  N   SER A  90      530    623    660    -20     26     10       N  
  459  CA  SER A  90      552    665    690    -13     22     13       C  
  460  C   SER A  90      507    538    557     -2      5      7       C  
  461  O   SER A  90      494    629    638     -6     11      8       O  
  462  CB  SER A  90      516    627    655     -5     27     22       C  
  463  OG  SER A  90      615    713    747     -6     34     28       O  

>  <MASTER>
      275    0    2   19   15    0    7    6 3251    1   30   28          

$$$$
