start_structures/Ligand_Substrate/Ligand_Complex_Stripped/3Y6_4X6T.pdb
 OpenBabel08222315193D

 44 46  0  0  1  0  0  0  0  0999 V2000
  -17.0550  -10.2920    5.4150 N   0  0  0  0  0  0  0  0  0  0  0  0
  -16.4880   -9.9090    6.6980 C   0  0  2  0  0  0  0  0  0  0  0  0
  -16.7760   -8.4940    7.1570 C   0  0  0  0  0  0  0  0  0  0  0  0
  -16.2960   -8.1000    8.2290 O   0  0  0  0  0  0  0  0  0  0  0  0
  -14.9900  -10.1060    6.6850 C   0  0  0  0  0  0  0  0  0  0  0  0
  -14.6690  -11.4720    6.5830 O   0  0  0  0  0  0  0  0  0  0  0  0
  -13.1260  -18.0770    3.7590 N   0  0  0  0  0  0  0  0  0  0  0  0
  -13.6500  -16.8620    3.2780 C   0  0  1  0  0  0  0  0  0  0  0  0
  -13.3320  -15.8590    4.3650 C   0  0  0  0  0  0  0  0  0  0  0  0
  -12.8550  -16.2000    5.4320 O   0  0  0  0  0  0  0  0  0  0  0  0
  -11.6940  -19.4200    5.5300 O   0  0  0  0  0  0  0  0  0  0  0  0
  -12.0620  -20.5890    4.8550 C   0  0  0  0  0  0  0  0  0  0  0  0
  -11.6380  -21.8200    5.2530 C   0  0  0  0  0  0  0  0  0  0  0  0
  -10.7840  -21.8450    6.3550 O   0  0  0  0  0  0  0  0  0  0  0  0
  -11.9240  -22.8080    4.7280 N   0  0  0  0  0  0  0  0  0  0  0  0
  -11.3870  -24.0340    5.2580 C   0  0  0  0  0  0  0  0  0  0  0  0
  -12.4340  -24.7590    6.0790 C   0  0  0  0  0  0  0  0  0  0  0  0
  -12.6070  -22.9030    3.7980 C   0  0  0  0  0  0  0  0  0  0  0  0
  -13.2050  -21.8710    3.1290 C   0  0  0  0  0  0  0  0  0  0  0  0
  -12.9540  -20.4910    3.6700 N   0  0  0  0  0  0  0  0  0  0  0  0
  -13.4820  -19.2780    3.1270 C   0  0  0  0  0  0  0  0  0  0  0  0
  -14.2080  -19.2930    2.1700 O   0  0  0  0  0  0  0  0  0  0  0  0
  -13.0870  -16.3970    1.9390 C   0  0  0  0  0  0  0  0  0  0  0  0
  -11.8160  -15.8360    1.8600 C   0  0  0  0  0  0  0  0  0  0  0  0
  -11.3130  -15.4070    0.6350 C   0  0  0  0  0  0  0  0  0  0  0  0
  -12.0820  -15.5280   -0.5140 C   0  0  0  0  0  0  0  0  0  0  0  0
  -11.5600  -15.0810   -1.7520 O   0  0  0  0  0  0  0  0  0  0  0  0
  -13.3570  -16.0770   -0.4470 C   0  0  0  0  0  0  0  0  0  0  0  0
  -13.8610  -16.5010    0.7860 C   0  0  0  0  0  0  0  0  0  0  0  0
  -13.6340  -14.4810    4.0700 N   0  0  0  0  0  0  0  0  0  0  0  0
  -13.3670  -13.4800    5.0450 C   0  0  2  0  0  0  0  0  0  0  0  0
  -14.7880  -12.6890    5.1530 B   0  0  0  0  0  0  0  0  0  0  0  0
  -15.9220  -13.4520    5.5920 O   0  0  0  0  0  0  0  0  0  0  0  0
  -15.0130  -11.6420    4.1860 O   0  0  0  0  0  0  0  0  0  0  0  0
  -12.3580  -12.4930    4.4980 C   0  0  0  0  0  0  0  0  0  0  0  0
  -10.8350  -12.7320    4.6400 C   0  0  0  0  0  0  0  0  0  0  0  0
  -10.0840  -12.8170    3.4710 C   0  0  0  0  0  0  0  0  0  0  0  0
   -8.7060  -12.9950    3.5520 C   0  0  0  0  0  0  0  0  0  0  0  0
   -7.8830  -13.1050    2.2820 C   0  0  0  0  0  0  0  0  0  0  0  0
   -8.4580  -13.2470    1.1780 O   0  0  0  0  0  0  0  0  0  0  0  0
   -6.6260  -13.0450    2.3400 O   0  0  0  0  0  0  0  0  0  0  0  0
   -8.0830  -13.0740    4.7890 C   0  0  0  0  0  0  0  0  0  0  0  0
   -8.8350  -12.9690    5.9520 C   0  0  0  0  0  0  0  0  0  0  0  0
  -10.2140  -12.7890    5.8900 C   0  0  0  0  0  0  0  0  0  0  0  0
  2  1  1  6  0  0  0
  2  3  1  0  0  0  0
  3  4  2  0  0  0  0
  5  2  1  0  0  0  0
  6  5  1  0  0  0  0
  7 21  1  0  0  0  0
  8  7  1  1  0  0  0
  8  9  1  0  0  0  0
  8 23  1  0  0  0  0
  9 10  2  0  0  0  0
  9 30  1  0  0  0  0
 11 12  2  0  0  0  0
 12 13  1  0  0  0  0
 12 20  1  0  0  0  0
 13 14  2  0  0  0  0
 13 15  1  0  0  0  0
 15 16  1  0  0  0  0
 15 18  1  0  0  0  0
 16 17  1  0  0  0  0
 18 19  2  0  0  0  0
 19 20  1  0  0  0  0
 20 21  1  0  0  0  0
 21 22  2  0  0  0  0
 23 24  2  0  0  0  0
 23 29  1  0  0  0  0
 24 25  1  0  0  0  0
 25 26  2  0  0  0  0
 26 27  1  0  0  0  0
 26 28  1  0  0  0  0
 28 29  2  0  0  0  0
 30 31  1  0  0  0  0
 31 32  1  0  0  0  0
 31 35  1  6  0  0  0
 32 33  1  0  0  0  0
 32 34  1  0  0  0  0
 32  6  1  0  0  0  0
 35 36  1  0  0  0  0
 36 37  2  0  0  0  0
 36 44  1  0  0  0  0
 37 38  1  0  0  0  0
 38 39  1  0  0  0  0
 38 42  2  0  0  0  0
 39 40  2  0  0  0  0
 39 41  1  0  0  0  0
 42 43  1  0  0  0  0
 43 44  2  0  0  0  0
M  END
>  <HEADER>
    HYDROLASE/HYDROLASE INHIBITOR           09-DEC-14   4X6T              

>  <TITLE>
    M.TUBERCULOSIS BETALACTAMASE COMPLEXED WITH INHIBITOR EC19            

>  <COMPND>
    MOL_ID: 1;                                                            
   2 MOLECULE: BETA-LACTAMASE;                                            
   3 CHAIN: A;                                                            
   4 FRAGMENT: UNP RESIDUES 45-307;                                       
   5 SYNONYM: AMBLER CLASS A BETA-LACTAMASE;                              
   6 EC: 3.5.2.6;                                                         
   7 ENGINEERED: YES;                                                     
   8 MUTATION: YES                                                        

>  <SOURCE>
    MOL_ID: 1;                                                            
   2 ORGANISM_SCIENTIFIC: MYCOBACTERIUM TUBERCULOSIS;                     
   3 ORGANISM_TAXID: 83332;                                               
   4 STRAIN: ATCC 25618 / H37RV;                                          
   5 GENE: BLAC, BLAA, RV2068C, MTCY49.07C;                               
   6 EXPRESSION_SYSTEM: ESCHERICHIA COLI;                                 
   7 EXPRESSION_SYSTEM_TAXID: 562                                         

>  <KEYWDS>
    BETA-LACTAMASE, TRANSITION STATE INHIBITOR, STRUCTURE BASED DRUG      
   2 DEVELOPMENT, BETA-LACTAMS, BORONATES, PENICILLIN BINDING PROTEIN.,   
   3 HYDROLASE-HYDROLASE INHIBITOR COMPLEX                                

>  <EXPDTA>
    X-RAY DIFFRACTION                                                     

>  <AUTHOR>
    S.HAZRA                                                               

>  <REVDAT>
   4   30-MAR-22 4X6T    1       REMARK                                   
   3   18-APR-18 4X6T    1       JRNL                                     
   2   13-SEP-17 4X6T    1       REMARK                                   
   1   23-DEC-15 4X6T    0                                                

>  <JRNL>
      AUTH   S.G.KURZ,S.HAZRA,C.R.BETHEL,C.ROMAGNOLI,E.CASELLI,F.PRATI,   
      AUTH 2 J.S.BLANCHARD,R.A.BONOMO                                     
      TITL   INHIBITING THE BETA-LACTAMASE OF MYCOBACTERIUM TUBERCULOSIS  
      TITL 2 (MTB) WITH NOVEL BORONIC ACID TRANSITION-STATE INHIBITORS    
      TITL 3 (BATSIS).                                                    
      REF    ACS INFECT DIS                V.   1   234 2015              
      REFN                   ESSN 2373-8227                               
      PMID   27622739                                                     
      DOI    10.1021/ACSINFECDIS.5B00003                                  

>  <REMARK>
   2                                                                      
   2 RESOLUTION.    1.40 ANGSTROMS.                                       
   3                                                                      
   3 REFINEMENT.                                                          
   3   PROGRAM     : PHENIX (PHENIX.REFINE: 1.9_1692)                     
   3   AUTHORS     : PAUL ADAMS,PAVEL AFONINE,VINCENT CHEN,IAN            
   3               : DAVIS,KRESHNA GOPAL,RALF GROSSE-KUNSTLEVE,           
   3               : LI-WEI HUNG,ROBERT IMMORMINO,TOM IOERGER,            
   3               : AIRLIE MCCOY,ERIK MCKEE,NIGEL MORIARTY,              
   3               : REETAL PAI,RANDY READ,JANE RICHARDSON,               
   3               : DAVID RICHARDSON,TOD ROMO,JIM SACCHETTINI,           
   3               : NICHOLAS SAUTER,JACOB SMITH,LAURENT                  
   3               : STORONI,TOM TERWILLIGER,PETER ZWART                  
   3                                                                      
   3    REFINEMENT TARGET : ML                                            
   3                                                                      
   3  DATA USED IN REFINEMENT.                                            
   3   RESOLUTION RANGE HIGH (ANGSTROMS) : 1.40                           
   3   RESOLUTION RANGE LOW  (ANGSTROMS) : 38.50                          
   3   MIN(FOBS/SIGMA_FOBS)              : 0.050                          
   3   COMPLETENESS FOR RANGE        (%) : 91.7                           
   3   NUMBER OF REFLECTIONS             : 48394                          
   3                                                                      
   3  FIT TO DATA USED IN REFINEMENT.                                     
   3   R VALUE     (WORKING + TEST SET) : 0.168                           
   3   R VALUE            (WORKING SET) : 0.166                           
   3   FREE R VALUE                     : 0.202                           
   3   FREE R VALUE TEST SET SIZE   (%) : 4.130                           
   3   FREE R VALUE TEST SET COUNT      : 2000                            
   3                                                                      
   3  FIT TO DATA USED IN REFINEMENT (IN BINS).                           
   3   BIN  RESOLUTION RANGE  COMPL.    NWORK NFREE   RWORK  RFREE        
   3     1 38.5418 -  3.3657    0.88     3371   146  0.1488 0.1946        
   3     2  3.3657 -  2.6717    1.00     3680   158  0.1719 0.2014        
   3     3  2.6717 -  2.3340    1.00     3643   157  0.1702 0.2228        
   3     4  2.3340 -  2.1206    0.78     2839   122  0.1649 0.1953        
   3     5  2.1206 -  1.9686    0.99     3575   155  0.1637 0.1979        
   3     6  1.9686 -  1.8526    0.79     2850   122  0.1712 0.1829        
   3     7  1.8526 -  1.7598    0.98     3523   153  0.1606 0.2041        
   3     8  1.7598 -  1.6832    0.97     3478   149  0.1663 0.1970        
   3     9  1.6832 -  1.6184    0.97     3464   149  0.1638 0.2145        
   3    10  1.6184 -  1.5625    0.95     3407   147  0.1704 0.1817        
   3    11  1.5625 -  1.5137    0.94     3363   145  0.1758 0.1749        
   3    12  1.5137 -  1.4704    0.86     3073   133  0.2012 0.2338        
   3    13  1.4704 -  1.4317    0.90     3198   138  0.2189 0.2309        
   3    14  1.4317 -  1.4000    0.83     2930   126  0.2363 0.2690        
   3                                                                      
   3  BULK SOLVENT MODELLING.                                             
   3   METHOD USED        : FLAT BULK SOLVENT MODEL                       
   3   SOLVENT RADIUS     : 1.11                                          
   3   SHRINKAGE RADIUS   : 0.90                                          
   3   K_SOL              : NULL                                          
   3   B_SOL              : NULL                                          
   3                                                                      
   3  ERROR ESTIMATES.                                                    
   3   COORDINATE ERROR (MAXIMUM-LIKELIHOOD BASED)     : 0.120            
   3   PHASE ERROR (DEGREES, MAXIMUM-LIKELIHOOD BASED) : 19.980           
   3                                                                      
   3  B VALUES.                                                           
   3   FROM WILSON PLOT           (A**2) : NULL                           
   3   MEAN B VALUE      (OVERALL, A**2) : NULL                           
   3   OVERALL ANISOTROPIC B VALUE.                                       
   3    B11 (A**2) : NULL                                                 
   3    B22 (A**2) : NULL                                                 
   3    B33 (A**2) : NULL                                                 
   3    B12 (A**2) : NULL                                                 
   3    B13 (A**2) : NULL                                                 
   3    B23 (A**2) : NULL                                                 
   3                                                                      
   3  TWINNING INFORMATION.                                               
   3   FRACTION: NULL                                                     
   3   OPERATOR: NULL                                                     
   3                                                                      
   3  DEVIATIONS FROM IDEAL VALUES.                                       
   3                 RMSD          COUNT                                  
   3   BOND      :  0.006           2116                                  
   3   ANGLE     :  1.283           2901                                  
   3   CHIRALITY :  0.045            327                                  
   3   PLANARITY :  0.006            377                                  
   3   DIHEDRAL  : 13.174            745                                  
   3                                                                      
   3  TLS DETAILS                                                         
   3   NUMBER OF TLS GROUPS  : NULL                                       
   3                                                                      
   3  NCS DETAILS                                                         
   3   NUMBER OF NCS GROUPS : NULL                                        
   3                                                                      
   3  OTHER REFINEMENT REMARKS: NULL                                      
   4                                                                      
   4 4X6T COMPLIES WITH FORMAT V. 3.30, 13-JUL-11                         
 100                                                                      
 100 THIS ENTRY HAS BEEN PROCESSED BY RCSB ON 09-DEC-14.                  
 100 THE DEPOSITION ID IS D_1000205157.                                   
 200                                                                      
 200 EXPERIMENTAL DETAILS                                                 
 200  EXPERIMENT TYPE                : X-RAY DIFFRACTION                  
 200  DATE OF DATA COLLECTION        : 20-SEP-13                          
 200  TEMPERATURE           (KELVIN) : 100                                
 200  PH                             : 7.5                                
 200  NUMBER OF CRYSTALS USED        : 1                                  
 200                                                                      
 200  SYNCHROTRON              (Y/N) : Y                                  
 200  RADIATION SOURCE               : NSLS                               
 200  BEAMLINE                       : X29A                               
 200  X-RAY GENERATOR MODEL          : NULL                               
 200  MONOCHROMATIC OR LAUE    (M/L) : M                                  
 200  WAVELENGTH OR RANGE        (A) : 1.00                               
 200  MONOCHROMATOR                  : SI (111)                           
 200  OPTICS                         : NULL                               
 200                                                                      
 200  DETECTOR TYPE                  : CCD                                
 200  DETECTOR MANUFACTURER          : ADSC QUANTUM 315                   
 200  INTENSITY-INTEGRATION SOFTWARE : HKL-3000                           
 200  DATA SCALING SOFTWARE          : HKL-3000                           
 200                                                                      
 200  NUMBER OF UNIQUE REFLECTIONS   : 50722                              
 200  RESOLUTION RANGE HIGH      (A) : 1.400                              
 200  RESOLUTION RANGE LOW       (A) : 38.500                             
 200  REJECTION CRITERIA  (SIGMA(I)) : NULL                               
 200                                                                      
 200 OVERALL.                                                             
 200  COMPLETENESS FOR RANGE     (%) : 95.4                               
 200  DATA REDUNDANCY                : 6.500                              
 200  R MERGE                    (I) : NULL                               
 200  R SYM                      (I) : NULL                               
 200  <I/SIGMA(I)> FOR THE DATA SET  : 3.0500                             
 200                                                                      
 200 IN THE HIGHEST RESOLUTION SHELL.                                     
 200  HIGHEST RESOLUTION SHELL, RANGE HIGH (A) : NULL                     
 200  HIGHEST RESOLUTION SHELL, RANGE LOW  (A) : NULL                     
 200  COMPLETENESS FOR SHELL     (%) : NULL                               
 200  DATA REDUNDANCY IN SHELL       : NULL                               
 200  R MERGE FOR SHELL          (I) : NULL                               
 200  R SYM FOR SHELL            (I) : NULL                               
 200  <I/SIGMA(I)> FOR SHELL         : NULL                               
 200                                                                      
 200 DIFFRACTION PROTOCOL: SINGLE WAVELENGTH                              
 200 METHOD USED TO DETERMINE THE STRUCTURE: MOLECULAR REPLACEMENT        
 200 SOFTWARE USED: PHASER                                                
 200 STARTING MODEL: 4HFX                                                 
 200                                                                      
 200 REMARK: NULL                                                         
 280                                                                      
 280 CRYSTAL                                                              
 280 SOLVENT CONTENT, VS   (%): 47.11                                     
 280 MATTHEWS COEFFICIENT, VM (ANGSTROMS**3/DA): 2.33                     
 280                                                                      
 280 CRYSTALLIZATION CONDITIONS: 0.1M HEPES, PH 7.5, 2M NH4H2PO4          
 280  PROTEIN CONCENTRATION 12 MGS/ML, VAPOR DIFFUSION, HANGING DROP,     
 280  TEMPERATURE 283K                                                    
 290                                                                      
 290 CRYSTALLOGRAPHIC SYMMETRY                                            
 290 SYMMETRY OPERATORS FOR SPACE GROUP: P 21 21 21                       
 290                                                                      
 290      SYMOP   SYMMETRY                                                
 290     NNNMMM   OPERATOR                                                
 290       1555   X,Y,Z                                                   
 290       2555   -X+1/2,-Y,Z+1/2                                         
 290       3555   -X,Y+1/2,-Z+1/2                                         
 290       4555   X+1/2,-Y+1/2,-Z                                         
 290                                                                      
 290     WHERE NNN -> OPERATOR NUMBER                                     
 290           MMM -> TRANSLATION VECTOR                                  
 290                                                                      
 290 CRYSTALLOGRAPHIC SYMMETRY TRANSFORMATIONS                            
 290 THE FOLLOWING TRANSFORMATIONS OPERATE ON THE ATOM/HETATM             
 290 RECORDS IN THIS ENTRY TO PRODUCE CRYSTALLOGRAPHICALLY                
 290 RELATED MOLECULES.                                                   
 290   SMTRY1   1  1.000000  0.000000  0.000000        0.00000            
 290   SMTRY2   1  0.000000  1.000000  0.000000        0.00000            
 290   SMTRY3   1  0.000000  0.000000  1.000000        0.00000            
 290   SMTRY1   2 -1.000000  0.000000  0.000000       21.63200            
 290   SMTRY2   2  0.000000 -1.000000  0.000000        0.00000            
 290   SMTRY3   2  0.000000  0.000000  1.000000       42.34150            
 290   SMTRY1   3 -1.000000  0.000000  0.000000        0.00000            
 290   SMTRY2   3  0.000000  1.000000  0.000000       35.70850            
 290   SMTRY3   3  0.000000  0.000000 -1.000000       42.34150            
 290   SMTRY1   4  1.000000  0.000000  0.000000       21.63200            
 290   SMTRY2   4  0.000000 -1.000000  0.000000       35.70850            
 290   SMTRY3   4  0.000000  0.000000 -1.000000        0.00000            
 290                                                                      
 290 REMARK: NULL                                                         
 300                                                                      
 300 BIOMOLECULE: 1                                                       
 300 SEE REMARK 350 FOR THE AUTHOR PROVIDED AND/OR PROGRAM                
 300 GENERATED ASSEMBLY INFORMATION FOR THE STRUCTURE IN                  
 300 THIS ENTRY. THE REMARK MAY ALSO PROVIDE INFORMATION ON               
 300 BURIED SURFACE AREA.                                                 
 350                                                                      
 350 COORDINATES FOR A COMPLETE MULTIMER REPRESENTING THE KNOWN           
 350 BIOLOGICALLY SIGNIFICANT OLIGOMERIZATION STATE OF THE                
 350 MOLECULE CAN BE GENERATED BY APPLYING BIOMT TRANSFORMATIONS          
 350 GIVEN BELOW.  BOTH NON-CRYSTALLOGRAPHIC AND                          
 350 CRYSTALLOGRAPHIC OPERATIONS ARE GIVEN.                               
 350                                                                      
 350 BIOMOLECULE: 1                                                       
 350 AUTHOR DETERMINED BIOLOGICAL UNIT: MONOMERIC                         
 350 SOFTWARE DETERMINED QUATERNARY STRUCTURE: MONOMERIC                  
 350 SOFTWARE USED: PISA                                                  
 350 TOTAL BURIED SURFACE AREA: 1280 ANGSTROM**2                          
 350 SURFACE AREA OF THE COMPLEX: 10670 ANGSTROM**2                       
 350 CHANGE IN SOLVENT FREE ENERGY: -41.0 KCAL/MOL                        
 350 APPLY THE FOLLOWING TO CHAINS: A                                     
 350   BIOMT1   1  1.000000  0.000000  0.000000        0.00000            
 350   BIOMT2   1  0.000000  1.000000  0.000000        0.00000            
 350   BIOMT3   1  0.000000  0.000000  1.000000        0.00000            
 470                                                                      
 470 MISSING ATOM                                                         
 470 THE FOLLOWING RESIDUES HAVE MISSING ATOMS (M=MODEL NUMBER;           
 470 RES=RESIDUE NAME; C=CHAIN IDENTIFIER; SSEQ=SEQUENCE NUMBER;          
 470 I=INSERTION CODE):                                                   
 470   M RES CSSEQI  ATOMS                                                
 470     GLU A 289    CG   CD   OE1  OE2                                  
 500                                                                      
 500 GEOMETRY AND STEREOCHEMISTRY                                         
 500 SUBTOPIC: CLOSE CONTACTS IN SAME ASYMMETRIC UNIT                     
 500                                                                      
 500 THE FOLLOWING ATOMS ARE IN CLOSE CONTACT.                            
 500                                                                      
 500  ATM1  RES C  SSEQI   ATM2  RES C  SSEQI           DISTANCE          
 500   OG   SER A    84     BAY  3Y6 A   408              1.88            
 500   OG1  THR A   251     O4   PO4 A   407              2.06            
 500   O    HOH A   680     O    HOH A   681              2.06            
 500   O    HOH A   638     O    HOH A   722              2.07            
 500   O    HOH A   529     O    HOH A   556              2.08            
 500   O    HOH A   556     O    HOH A   568              2.12            
 500   O2   PO4 A   402     O    HOH A   708              2.12            
 500   O    HOH A   558     O    HOH A   569              2.14            
 500   O    HOH A   641     O    HOH A   680              2.14            
 500                                                                      
 500 REMARK: NULL                                                         
 500                                                                      
 500 GEOMETRY AND STEREOCHEMISTRY                                         
 500 SUBTOPIC: TORSION ANGLES                                             
 500                                                                      
 500 TORSION ANGLES OUTSIDE THE EXPECTED RAMACHANDRAN REGIONS:            
 500 (M=MODEL NUMBER; RES=RESIDUE NAME; C=CHAIN IDENTIFIER;               
 500 SSEQ=SEQUENCE NUMBER; I=INSERTION CODE).                             
 500                                                                      
 500 STANDARD TABLE:                                                      
 500 FORMAT:(10X,I3,1X,A3,1X,A1,I4,A1,4X,F7.2,3X,F7.2)                    
 500                                                                      
 500 EXPECTED VALUES: GJ KLEYWEGT AND TA JONES (1996). PHI/PSI-           
 500 CHOLOGY: RAMACHANDRAN REVISITED. STRUCTURE 4, 1395 - 1400            
 500                                                                      
 500  M RES CSSEQI        PSI       PHI                                   
 500    CYS A  83     -144.58     45.71                                   
 500    GLU A 181     -169.63   -101.02                                   
 500    ARG A 236     -119.34   -113.53                                   
 500                                                                      
 500 REMARK: NULL                                                         
 800                                                                      
 800 SITE                                                                 
 800 SITE_IDENTIFIER: AC1                                                 
 800 EVIDENCE_CODE: SOFTWARE                                              
 800 SITE_DESCRIPTION: binding site for residue PO4 A 401                 
 800                                                                      
 800 SITE_IDENTIFIER: AC2                                                 
 800 EVIDENCE_CODE: SOFTWARE                                              
 800 SITE_DESCRIPTION: binding site for residue PO4 A 402                 
 800                                                                      
 800 SITE_IDENTIFIER: AC3                                                 
 800 EVIDENCE_CODE: SOFTWARE                                              
 800 SITE_DESCRIPTION: binding site for residue PO4 A 403                 
 800                                                                      
 800 SITE_IDENTIFIER: AC4                                                 
 800 EVIDENCE_CODE: SOFTWARE                                              
 800 SITE_DESCRIPTION: binding site for residue PO4 A 404                 
 800                                                                      
 800 SITE_IDENTIFIER: AC5                                                 
 800 EVIDENCE_CODE: SOFTWARE                                              
 800 SITE_DESCRIPTION: binding site for residue PO4 A 405                 
 800                                                                      
 800 SITE_IDENTIFIER: AC6                                                 
 800 EVIDENCE_CODE: SOFTWARE                                              
 800 SITE_DESCRIPTION: binding site for residue PO4 A 406                 
 800                                                                      
 800 SITE_IDENTIFIER: AC7                                                 
 800 EVIDENCE_CODE: SOFTWARE                                              
 800 SITE_DESCRIPTION: binding site for residue PO4 A 407                 
 800                                                                      
 800 SITE_IDENTIFIER: AC8                                                 
 800 EVIDENCE_CODE: SOFTWARE                                              
 800 SITE_DESCRIPTION: binding site for residue 3Y6 A 408                 

>  <DBREF>
 4X6T A   45   307  UNP    P9WKD3   BLAC_MYCTU      45    307             

>  <SEQADV>
 4X6T ALA A   43  UNP  P9WKD3              EXPRESSION TAG                 
 4X6T LEU A   44  UNP  P9WKD3              EXPRESSION TAG                 
 4X6T ALA A  126  UNP  P9WKD3    GLN   126 CONFLICT                       
 4X6T ALA A  186  UNP  P9WKD3    ASN   186 CONFLICT                       

>  <SEQRES>
   1 A  265  ALA LEU ALA ASP ARG PHE ALA GLU LEU GLU ARG ARG TYR          
   2 A  265  ASP ALA ARG LEU GLY VAL TYR VAL PRO ALA THR GLY THR          
   3 A  265  THR ALA ALA ILE GLU TYR ARG ALA ASP GLU ARG PHE ALA          
   4 A  265  PHE CYS SER THR PHE LYS ALA PRO LEU VAL ALA ALA VAL          
   5 A  265  LEU HIS GLN ASN PRO LEU THR HIS LEU ASP LYS LEU ILE          
   6 A  265  THR TYR THR SER ASP ASP ILE ARG SER ILE SER PRO VAL          
   7 A  265  ALA GLN GLN HIS VAL ALA THR GLY MET THR ILE GLY GLN          
   8 A  265  LEU CYS ASP ALA ALA ILE ARG TYR SER ASP GLY THR ALA          
   9 A  265  ALA ASN LEU LEU LEU ALA ASP LEU GLY GLY PRO GLY GLY          
  10 A  265  GLY THR ALA ALA PHE THR GLY TYR LEU ARG SER LEU GLY          
  11 A  265  ASP THR VAL SER ARG LEU ASP ALA GLU GLU PRO GLU LEU          
  12 A  265  ALA ARG ASP PRO PRO GLY ASP GLU ARG ASP THR THR THR          
  13 A  265  PRO HIS ALA ILE ALA LEU VAL LEU GLN GLN LEU VAL LEU          
  14 A  265  GLY ASN ALA LEU PRO PRO ASP LYS ARG ALA LEU LEU THR          
  15 A  265  ASP TRP MET ALA ARG ASN THR THR GLY ALA LYS ARG ILE          
  16 A  265  ARG ALA GLY PHE PRO ALA ASP TRP LYS VAL ILE ASP LYS          
  17 A  265  THR GLY THR GLY ASP TYR GLY ARG ALA ASN ASP ILE ALA          
  18 A  265  VAL VAL TRP SER PRO THR GLY VAL PRO TYR VAL VAL ALA          
  19 A  265  VAL MET SER ASP ARG ALA GLY GLY GLY TYR ASP ALA GLU          
  20 A  265  PRO ARG GLU ALA LEU LEU ALA GLU ALA ALA THR CYS VAL          
  21 A  265  ALA GLY VAL LEU ALA                                          

>  <HET>
 PO4  A 401       5                                                       
 PO4  A 402       5                                                       
 PO4  A 403       5                                                       
 PO4  A 404       5                                                       
 PO4  A 405       5                                                       
 PO4  A 406       5                                                       
 PO4  A 407       5                                                       
 3Y6  A 408      38                                                       

>  <HETNAM>
     PO4 PHOSPHATE ION                                                    
     3Y6 3-[(2R)-2-(DIHYDROXYBORANYL)-2-{[(2R)-2-{[(4-ETHYL-2,3-          
   2 3Y6  DIOXO-3,4-DIHYDROPYRAZIN-1(2H)-YL)CARBONYL]AMINO}-2-            
   3 3Y6  (4-HYDROXYPHENYL)ACETYL]AMINO}ETHYL]BENZOIC ACID                

>  <FORMUL>
   2  PO4    7(O4 P 3-)                                                   
   9  3Y6    C24 H25 B N4 O9                                              
  10  HOH   *263(H2 O)                                                    

>  <HELIX>
   1 AA1 ALA A   43  ASP A   56  1                                  14    
   2 AA2 CYS A   83  THR A   85  5                                   3    
   3 AA3 PHE A   86  ASN A   98  1                                  13    
   4 AA4 PRO A   99  ASP A  104  5                                   6    
   5 AA5 THR A  110  ILE A  114  5                                   5    
   6 AA6 VAL A  120  HIS A  124  5                                   5    
   7 AA7 ILE A  131  TYR A  141  1                                  11    
   8 AA8 ASP A  143  GLY A  155  1                                  13    
   9 AA9 GLY A  156  GLY A  159  5                                   4    
  10 AB1 GLY A  160  LEU A  171  1                                  12    
  11 AB2 PRO A  183  ARG A  187  5                                   5    
  12 AB3 THR A  198  LEU A  211  1                                  14    
  13 AB4 PRO A  216  ARG A  229  1                                  14    
  14 AB5 ARG A  236  PHE A  241  1                                   6    
  15 AB6 ARG A  281  GLY A  285  5                                   5    
  16 AB7 ARG A  291  ALA A  307  1                                  17    

>  <SHEET>
   1 AA1 5 ILE A  72  TYR A  74  0                                        
   2 AA1 5 ARG A  58  VAL A  63 -1  N  VAL A  61   O  TYR A  74           
   3 AA1 5 PRO A 272  ASP A 280 -1  O  MET A 278   N  GLY A  60           
   4 AA1 5 ARG A 258  TRP A 266 -1  N  VAL A 265   O  TYR A 273           
   5 AA1 5 LYS A 246  GLY A 254 -1  N  GLY A 252   O  ASN A 260           
   1 AA2 2 PHE A  80  ALA A  81  0                                        
   2 AA2 2 THR A 196  THR A 197 -1  O  THR A 197   N  PHE A  80           
   1 AA3 2 LEU A 106  ILE A 107  0                                        
   2 AA3 2 MET A 129  THR A 130 -1  O  MET A 129   N  ILE A 107           

>  <CISPEP>
   1 GLU A  182    PRO A  183          0         2.13                     

>  <SITE>
   1 AC1  6 MET A 227  GLY A 233  ARG A 238  VAL A 247                    
   2 AC1  6 ASP A 249  HOH A 632                                          
   1 AC2  5 ALA A 239  GLY A 240  PHE A 241  PRO A 242                    
   2 AC2  5 HOH A 708                                                     
   1 AC3  4 ARG A 140  TYR A 141  PO4 A 404  HOH A 674                    
   1 AC4  5 PRO A 119  GLN A 123  TYR A 141  PO4 A 403                    
   2 AC4  5 HOH A 736                                                     
   1 AC5  5 GLU A  73  ASP A  77  HIS A 200  HOH A 600                    
   2 AC5  5 HOH A 763                                                     
   1 AC6  2 TYR A  74  ARG A  75                                          
   1 AC7 10 SER A  84  SER A 142  THR A 232  ARG A 236                    
   2 AC7 10 LYS A 250  THR A 251  GLY A 252  THR A 253                    
   3 AC7 10 3Y6 A 408  HOH A 698                                          
   1 AC8 22 CYS A  83  SER A  84  ARG A 115  SER A 116                    
   2 AC8 22 ILE A 117  SER A 142  GLU A 182  PRO A 183                    
   3 AC8 22 ARG A 187  PRO A 189  GLY A 191  ASP A 192                    
   4 AC8 22 ARG A 194  GLY A 252  THR A 253  GLY A 254                    
   5 AC8 22 ASP A 255  PO4 A 407  HOH A 504  HOH A 505                    
   6 AC8 22 HOH A 529  HOH A 615                                          

>  <ORIGX1>
      1.000000  0.000000  0.000000        0.00000                         

>  <ORIGX2>
      0.000000  1.000000  0.000000        0.00000                         

>  <ORIGX3>
      0.000000  0.000000  1.000000        0.00000                         

>  <SCALE1>
      0.023114  0.000000  0.000000        0.00000                         

>  <SCALE2>
      0.000000  0.014002  0.000000        0.00000                         

>  <SCALE3>
      0.000000  0.000000  0.011809        0.00000                         

>  <MASTER>
      284    0    8   16    9    0   19    6 2310    1   73   21          

$$$$
