start_structures/Ligand_Substrate/Ligand_Complex_Stripped/4D6_6V7H.pdb
 OpenBabel08222315203D

 50 54  0  0  1  0  0  0  0  0999 V2000
    2.6060    3.3600  -15.0230 N   0  0  0  0  0  0  0  0  0  0  0  0
    2.2560    2.4370  -16.0960 C   0  0  2  0  0  0  0  0  0  0  0  0
    0.8500    2.6470  -16.6380 C   0  0  0  0  0  0  0  0  0  0  0  0
    0.5190    2.0750  -17.6820 O   0  0  0  0  0  0  0  0  0  0  0  0
    2.4620    0.9840  -15.6480 C   0  0  0  0  0  0  0  0  0  0  0  0
    3.8420    0.6660  -15.4900 O   0  0  0  0  0  0  0  0  0  0  0  0
    2.6870    2.9960  -14.2480 H   0  0  0  0  0  0  0  0  0  0  0  0
    2.8640    2.5890  -16.8370 H   0  0  0  0  0  0  0  0  0  0  0  0
    2.0140    0.8540  -14.7980 H   0  0  0  0  0  0  0  0  0  0  0  0
    2.0820    0.3950  -16.3180 H   0  0  0  0  0  0  0  0  0  0  0  0
   10.9210    3.6310  -10.6090 C   0  0  0  0  0  0  0  0  0  0  0  0
   11.3460    3.4560  -11.6010 C   0  0  0  0  0  0  0  0  0  0  0  0
    9.6520    1.6990  -11.3770 C   0  0  0  0  0  0  0  0  0  0  0  0
    9.5590    1.8220  -11.3040 C   0  0  0  0  0  0  0  0  0  0  0  0
   11.3230    3.2170  -11.8270 C   0  0  0  0  0  0  0  0  0  0  0  0
   10.6980    3.6350  -10.4330 C   0  0  0  0  0  0  0  0  0  0  0  0
    8.0990    0.3870  -12.9040 C   0  0  0  0  0  0  0  0  0  0  0  0
    8.0310    0.4260  -12.7970 C   0  0  0  0  0  0  0  0  0  0  0  0
    5.9580   -1.4190  -14.6560 C   0  0  0  0  0  0  0  0  0  0  0  0
    6.0980   -1.3510  -14.4390 C   0  0  0  0  0  0  0  0  0  0  0  0
    5.2230   -2.2060  -13.5840 C   0  0  0  0  0  0  0  0  0  0  0  0
    5.3420   -2.1260  -13.3680 C   0  0  0  0  0  0  0  0  0  0  0  0
    3.7750   -1.7140  -13.5250 C   0  0  1  0  0  0  0  0  0  0  0  0
    3.8540   -1.7960  -13.4970 C   0  0  1  0  0  0  0  0  0  0  0  0
    3.0230   -2.4320  -12.4190 C   0  0  0  0  0  0  0  0  0  0  0  0
    3.0040   -2.6050  -12.5330 C   0  0  0  0  0  0  0  0  0  0  0  0
    0.8860   -2.4770  -13.5310 O   0  5  0  0  0  0  0  0  0  0  0  0
    1.0110   -2.1430  -13.7950 O   0  5  0  0  0  0  0  0  0  0  0  0
    1.5340   -2.1060  -12.5210 C   0  0  2  0  0  0  0  0  0  0  0  0
    1.5340   -2.2200  -12.6570 C   0  0  2  0  0  0  0  0  0  0  0  0
    1.0510   -1.4300  -11.5200 O   0  0  0  0  0  0  0  0  0  0  0  0
    0.9310   -1.9770  -11.5290 O   0  0  0  0  0  0  0  0  0  0  0  0
    3.7540   -0.3020  -13.2680 O   0  0  0  0  0  0  0  0  0  0  0  0
    3.6780   -0.3970  -13.2390 O   0  0  0  0  0  0  0  0  0  0  0  0
    4.5550    0.6000  -14.0350 B   0  0  2  0  0  0  0  0  0  0  0  0
    4.4570    0.5760  -13.9470 B   0  0  0  0  0  0  0  0  0  0  0  0
    4.3440    1.8960  -13.6900 O   0  0  0  0  0  0  0  0  0  0  0  0
    4.1920    1.8190  -13.4320 O   0  0  0  0  0  0  0  0  0  0  0  0
    6.0280    0.0730  -14.2670 C   0  0  1  0  0  0  0  0  0  0  0  0
    5.9880    0.1720  -14.1930 C   0  0  1  0  0  0  0  0  0  0  0  0
    6.7710    0.2550  -12.9780 N   0  0  0  0  0  0  0  0  0  0  0  0
    6.7040    0.4850  -12.9280 N   0  0  0  0  0  0  0  0  0  0  0  0
    8.8230    0.3690  -13.8990 O   0  0  0  0  0  0  0  0  0  0  0  0
    8.7910    0.1410  -13.7310 O   0  0  0  0  0  0  0  0  0  0  0  0
    8.6970    0.5420  -11.5040 C   0  0  0  0  0  0  0  0  0  0  0  0
    8.5570    0.7040  -11.3840 C   0  0  0  0  0  0  0  0  0  0  0  0
    9.6530    2.6920   -9.9640 S   0  0  0  0  0  0  0  0  0  0  0  0
   10.7400    2.1480  -12.5100 S   0  0  0  0  0  0  0  0  0  0  0  0
   10.6060    2.1030  -12.2800 C   0  0  0  0  0  0  0  0  0  0  0  0
    9.6690    2.7020  -10.2520 C   0  0  0  0  0  0  0  0  0  0  0  0
  1  7  1  0  0  0  0
  2  8  1  6  0  0  0
  2  5  1  0  0  0  0
  2  1  1  0  0  0  0
  3  2  1  0  0  0  0
  4  3  2  0  0  0  0
  5  6  1  0  0  0  0
  5  9  1  0  0  0  0
  6 35  1  0  0  0  0
 10  5  1  0  0  0  0
 11 15  2  0  0  0  0
 11 47  1  0  0  0  0
 12 16  2  0  0  0  0
 12 48  1  0  0  0  0
 13 45  1  0  0  0  0
 13 47  1  0  0  0  0
 13 49  2  0  0  0  0
 14 46  1  0  0  0  0
 14 48  1  0  0  0  0
 14 50  2  0  0  0  0
 15 49  1  0  0  0  0
 16 50  1  0  0  0  0
 17 41  1  0  0  0  0
 17 43  2  0  0  0  0
 17 45  1  0  0  0  0
 18 42  1  0  0  0  0
 18 44  2  0  0  0  0
 18 46  1  0  0  0  0
 19 21  1  0  0  0  0
 19 39  1  0  0  0  0
 20 22  1  0  0  0  0
 20 40  1  0  0  0  0
 21 23  1  0  0  0  0
 22 24  1  0  0  0  0
 23 25  1  1  0  0  0
 23 33  1  0  0  0  0
 24 26  1  1  0  0  0
 24 34  1  0  0  0  0
 27 29  1  0  0  0  0
 28 30  1  0  0  0  0
 28 27  1  0  0  0  0
 29 25  1  6  0  0  0
 29 31  1  0  0  0  0
 30 26  1  6  0  0  0
 30 32  1  0  0  0  0
 32 31  1  0  0  0  0
 33 35  1  0  0  0  0
 34 36  1  0  0  0  0
 35 37  1  1  0  0  0
 35 39  1  0  0  0  0
 36 38  1  0  0  0  0
 36 40  1  0  0  0  0
 39 41  1  1  0  0  0
 40 42  1  1  0  0  0
M  CHG  2  27  -1  28  -1
M  END
>  <HEADER>
    HYDROLASE                               08-DEC-19   6V7H              

>  <TITLE>
    STRUCTURE OF CTX-M-14 BOUND TO VABORBACTAM AT 1.0 A                   

>  <COMPND>
    MOL_ID: 1;                                                            
   2 MOLECULE: BETA-LACTAMASE;                                            
   3 CHAIN: A, B;                                                         
   4 EC: 3.5.2.6;                                                         
   5 ENGINEERED: YES                                                      

>  <SOURCE>
    MOL_ID: 1;                                                            
   2 ORGANISM_SCIENTIFIC: ESCHERICHIA COLI;                               
   3 ORGANISM_TAXID: 562;                                                 
   4 GENE: BLACTX-M-14;                                                   
   5 EXPRESSION_SYSTEM: ESCHERICHIA COLI BL21(DE3);                       
   6 EXPRESSION_SYSTEM_TAXID: 469008                                      

>  <KEYWDS>
    ESBL, BORONATE, BETA-LACTAMASE, INHIBITOR, HYDROLASE                  

>  <EXPDTA>
    X-RAY DIFFRACTION                                                     

>  <AUTHOR>
    O.A.PEMBERTON,Y.CHEN                                                  

>  <REVDAT>
   4   30-SEP-20 6V7H    1       JRNL                                     
   3   26-AUG-20 6V7H    1       JRNL                                     
   2   19-AUG-20 6V7H    1       JRNL                                     
   1   12-AUG-20 6V7H    0                                                

>  <JRNL>
      AUTH   O.A.PEMBERTON,R.TSIVKOVSKI,M.TOTROV,O.LOMOVSKAYA,Y.CHEN      
      TITL   STRUCTURAL BASIS AND BINDING KINETICS OF VABORBACTAM IN      
      TITL 2 CLASS A BETA-LACTAMASE INHIBITION.                           
      REF    ANTIMICROB.AGENTS CHEMOTHER.  V.  64       2020              
      REFN                   ESSN 1098-6596                               
      PMID   32778546                                                     
      DOI    10.1128/AAC.00398-20                                         

>  <REMARK>
   2                                                                      
   2 RESOLUTION.    1.00 ANGSTROMS.                                       
   3                                                                      
   3 REFINEMENT.                                                          
   3   PROGRAM     : PHENIX 1.17.1_3660                                   
   3   AUTHORS     : PAUL ADAMS,PAVEL AFONINE,VINCENT CHEN,IAN            
   3               : DAVIS,KRESHNA GOPAL,RALF GROSSE-KUNSTLEVE,           
   3               : LI-WEI HUNG,ROBERT IMMORMINO,TOM IOERGER,            
   3               : AIRLIE MCCOY,ERIK MCKEE,NIGEL MORIARTY,              
   3               : REETAL PAI,RANDY READ,JANE RICHARDSON,               
   3               : DAVID RICHARDSON,TOD ROMO,JIM SACCHETTINI,           
   3               : NICHOLAS SAUTER,JACOB SMITH,LAURENT                  
   3               : STORONI,TOM TERWILLIGER,PETER ZWART                  
   3                                                                      
   3    REFINEMENT TARGET : NULL                                          
   3                                                                      
   3  DATA USED IN REFINEMENT.                                            
   3   RESOLUTION RANGE HIGH (ANGSTROMS) : 1.00                           
   3   RESOLUTION RANGE LOW  (ANGSTROMS) : 46.88                          
   3   MIN(FOBS/SIGMA_FOBS)              : 0.630                          
   3   COMPLETENESS FOR RANGE        (%) : 89.4                           
   3   NUMBER OF REFLECTIONS             : 228425                         
   3                                                                      
   3  FIT TO DATA USED IN REFINEMENT.                                     
   3   R VALUE     (WORKING + TEST SET) : 0.105                           
   3   R VALUE            (WORKING SET) : 0.104                           
   3   FREE R VALUE                     : 0.121                           
   3   FREE R VALUE TEST SET SIZE   (%) : 5.200                           
   3   FREE R VALUE TEST SET COUNT      : 22083                           
   3                                                                      
   3  FIT TO DATA USED IN REFINEMENT (IN BINS).                           
   3   BIN  RESOLUTION RANGE  COMPL.    NWORK NFREE   RWORK  RFREE        
   3     1 46.8800 -  3.1100    1.00    14885   895  0.1151 0.1417        
   3     2  3.1100 -  2.4700    1.00    14999   762  0.1093 0.1189        
   3     3  2.4700 -  2.1500    1.00    14879   828  0.1038 0.1171        
   3     4  2.1500 -  1.9600    0.99    14967   789  0.1012 0.1153        
   3     5  1.9600 -  1.8200    0.98    14741   801  0.1044 0.1212        
   3     6  1.8200 -  1.7100    0.98    14624   811  0.1029 0.1230        
   3     7  1.7100 -  1.6200    0.97    14670   718  0.0969 0.1077        
   3     8  1.6200 -  1.5500    0.89    13253   726  0.0935 0.1094        
   3     9  1.5500 -  1.4900    0.87    13009   702  0.0919 0.1082        
   3    10  1.4900 -  1.4400    0.92    13848   717  0.0887 0.1067        
   3    11  1.4400 -  1.4000    0.92    13814   803  0.0905 0.1059        
   3    12  1.4000 -  1.3600    0.92    13738   790  0.0942 0.1140        
   3    13  1.3600 -  1.3200    0.92    13717   787  0.0929 0.1183        
   3    14  1.3200 -  1.2900    0.91    13557   814  0.0963 0.1135        
   3    15  1.2900 -  1.2600    0.83    12386   716  0.0956 0.1125        
   3    16  1.2600 -  1.2300    0.86    13019   734  0.0975 0.1222        
   3    17  1.2300 -  1.2100    0.88    13304   736  0.0979 0.1182        
   3    18  1.2100 -  1.1900    0.89    13372   686  0.0977 0.1194        
   3    19  1.1900 -  1.1600    0.90    13565   713  0.0955 0.1125        
   3    20  1.1600 -  1.1400    0.90    13459   785  0.0981 0.1045        
   3    21  1.1400 -  1.1300    0.88    13179   747  0.0959 0.1210        
   3    22  1.1300 -  1.1100    0.82    12260   635  0.1080 0.1305        
   3    23  1.1100 -  1.0900    0.86    12859   719  0.1076 0.1195        
   3    24  1.0900 -  1.0800    0.87    13008   758  0.1092 0.1218        
   3    25  1.0800 -  1.0600    0.88    13140   737  0.1129 0.1256        
   3    26  1.0600 -  1.0500    0.88    13247   751  0.1168 0.1303        
   3    27  1.0500 -  1.0400    0.88    13172   702  0.1226 0.1369        
   3    28  1.0400 -  1.0200    0.84    12664   712  0.1301 0.1457        
   3    29  1.0200 -  1.0100    0.74    11149   547  0.1408 0.1527        
   3    30  1.0100 -  1.0000    0.65     9786   462  0.1495 0.1730        
   3                                                                      
   3  BULK SOLVENT MODELLING.                                             
   3   METHOD USED        : NULL                                          
   3   SOLVENT RADIUS     : 1.11                                          
   3   SHRINKAGE RADIUS   : 0.90                                          
   3   K_SOL              : NULL                                          
   3   B_SOL              : NULL                                          
   3                                                                      
   3  ERROR ESTIMATES.                                                    
   3   COORDINATE ERROR (MAXIMUM-LIKELIHOOD BASED)     : 0.050            
   3   PHASE ERROR (DEGREES, MAXIMUM-LIKELIHOOD BASED) : 9.550            
   3                                                                      
   3  B VALUES.                                                           
   3   FROM WILSON PLOT           (A**2) : NULL                           
   3   MEAN B VALUE      (OVERALL, A**2) : 10.25                          
   3   OVERALL ANISOTROPIC B VALUE.                                       
   3    B11 (A**2) : NULL                                                 
   3    B22 (A**2) : NULL                                                 
   3    B33 (A**2) : NULL                                                 
   3    B12 (A**2) : NULL                                                 
   3    B13 (A**2) : NULL                                                 
   3    B23 (A**2) : NULL                                                 
   3                                                                      
   3  TWINNING INFORMATION.                                               
   3   FRACTION: NULL                                                     
   3   OPERATOR: NULL                                                     
   3                                                                      
   3  DEVIATIONS FROM IDEAL VALUES.                                       
   3                 RMSD          COUNT                                  
   3   BOND      :   NULL           NULL                                  
   3   ANGLE     :   NULL           NULL                                  
   3   CHIRALITY :   NULL           NULL                                  
   3   PLANARITY :   NULL           NULL                                  
   3   DIHEDRAL  :   NULL           NULL                                  
   3                                                                      
   3  TLS DETAILS                                                         
   3   NUMBER OF TLS GROUPS  : NULL                                       
   3                                                                      
   3  NCS DETAILS                                                         
   3   NUMBER OF NCS GROUPS : NULL                                        
   3                                                                      
   3  OTHER REFINEMENT REMARKS: NULL                                      
   4                                                                      
   4 6V7H COMPLIES WITH FORMAT V. 3.30, 13-JUL-11                         
 100                                                                      
 100 THIS ENTRY HAS BEEN PROCESSED BY RCSB ON 11-DEC-19.                  
 100 THE DEPOSITION ID IS D_1000245911.                                   
 200                                                                      
 200 EXPERIMENTAL DETAILS                                                 
 200  EXPERIMENT TYPE                : X-RAY DIFFRACTION                  
 200  DATE OF DATA COLLECTION        : 02-AUG-16                          
 200  TEMPERATURE           (KELVIN) : 100                                
 200  PH                             : NULL                               
 200  NUMBER OF CRYSTALS USED        : 1                                  
 200                                                                      
 200  SYNCHROTRON              (Y/N) : Y                                  
 200  RADIATION SOURCE               : APS                                
 200  BEAMLINE                       : 19-ID                              
 200  X-RAY GENERATOR MODEL          : NULL                               
 200  MONOCHROMATIC OR LAUE    (M/L) : M                                  
 200  WAVELENGTH OR RANGE        (A) : 0.9184                             
 200  MONOCHROMATOR                  : NULL                               
 200  OPTICS                         : NULL                               
 200                                                                      
 200  DETECTOR TYPE                  : PIXEL                              
 200  DETECTOR MANUFACTURER          : DECTRIS PILATUS3 S 6M              
 200  INTENSITY-INTEGRATION SOFTWARE : IMOSFLM 7.2.1                      
 200  DATA SCALING SOFTWARE          : SCALA 3.3.22                       
 200                                                                      
 200  NUMBER OF UNIQUE REFLECTIONS   : 228516                             
 200  RESOLUTION RANGE HIGH      (A) : 1.000                              
 200  RESOLUTION RANGE LOW       (A) : 53.360                             
 200  REJECTION CRITERIA  (SIGMA(I)) : NULL                               
 200                                                                      
 200 OVERALL.                                                             
 200  COMPLETENESS FOR RANGE     (%) : 95.7                               
 200  DATA REDUNDANCY                : 3.600                              
 200  R MERGE                    (I) : 0.06200                            
 200  R SYM                      (I) : 0.06200                            
 200  <I/SIGMA(I)> FOR THE DATA SET  : 13.3000                            
 200                                                                      
 200 IN THE HIGHEST RESOLUTION SHELL.                                     
 200  HIGHEST RESOLUTION SHELL, RANGE HIGH (A) : 1.00                     
 200  HIGHEST RESOLUTION SHELL, RANGE LOW  (A) : 1.05                     
 200  COMPLETENESS FOR SHELL     (%) : 88.6                               
 200  DATA REDUNDANCY IN SHELL       : 2.80                               
 200  R MERGE FOR SHELL          (I) : 0.19800                            
 200  R SYM FOR SHELL            (I) : 0.05300                            
 200  <I/SIGMA(I)> FOR SHELL         : NULL                               
 200                                                                      
 200 DIFFRACTION PROTOCOL: SINGLE WAVELENGTH                              
 200 METHOD USED TO DETERMINE THE STRUCTURE: MOLECULAR REPLACEMENT        
 200 SOFTWARE USED: PHASER 2.8.1                                          
 200 STARTING MODEL: 4UA6                                                 
 200                                                                      
 200 REMARK: NULL                                                         
 280                                                                      
 280 CRYSTAL                                                              
 280 SOLVENT CONTENT, VS   (%): 39.24                                     
 280 MATTHEWS COEFFICIENT, VM (ANGSTROMS**3/DA): 2.02                     
 280                                                                      
 280 CRYSTALLIZATION CONDITIONS: 1.0 M POTASSIUM PHOSPHATE, VAPOR         
 280  DIFFUSION, HANGING DROP, TEMPERATURE 293.15K                        
 290                                                                      
 290 CRYSTALLOGRAPHIC SYMMETRY                                            
 290 SYMMETRY OPERATORS FOR SPACE GROUP: P 1 21 1                         
 290                                                                      
 290      SYMOP   SYMMETRY                                                
 290     NNNMMM   OPERATOR                                                
 290       1555   X,Y,Z                                                   
 290       2555   -X,Y+1/2,-Z                                             
 290                                                                      
 290     WHERE NNN -> OPERATOR NUMBER                                     
 290           MMM -> TRANSLATION VECTOR                                  
 290                                                                      
 290 CRYSTALLOGRAPHIC SYMMETRY TRANSFORMATIONS                            
 290 THE FOLLOWING TRANSFORMATIONS OPERATE ON THE ATOM/HETATM             
 290 RECORDS IN THIS ENTRY TO PRODUCE CRYSTALLOGRAPHICALLY                
 290 RELATED MOLECULES.                                                   
 290   SMTRY1   1  1.000000  0.000000  0.000000        0.00000            
 290   SMTRY2   1  0.000000  1.000000  0.000000        0.00000            
 290   SMTRY3   1  0.000000  0.000000  1.000000        0.00000            
 290   SMTRY1   2 -1.000000  0.000000  0.000000        0.00000            
 290   SMTRY2   2  0.000000  1.000000  0.000000       53.34750            
 290   SMTRY3   2  0.000000  0.000000 -1.000000        0.00000            
 290                                                                      
 290 REMARK: NULL                                                         
 300                                                                      
 300 BIOMOLECULE: 1, 2                                                    
 300 SEE REMARK 350 FOR THE AUTHOR PROVIDED AND/OR PROGRAM                
 300 GENERATED ASSEMBLY INFORMATION FOR THE STRUCTURE IN                  
 300 THIS ENTRY. THE REMARK MAY ALSO PROVIDE INFORMATION ON               
 300 BURIED SURFACE AREA.                                                 
 350                                                                      
 350 COORDINATES FOR A COMPLETE MULTIMER REPRESENTING THE KNOWN           
 350 BIOLOGICALLY SIGNIFICANT OLIGOMERIZATION STATE OF THE                
 350 MOLECULE CAN BE GENERATED BY APPLYING BIOMT TRANSFORMATIONS          
 350 GIVEN BELOW.  BOTH NON-CRYSTALLOGRAPHIC AND                          
 350 CRYSTALLOGRAPHIC OPERATIONS ARE GIVEN.                               
 350                                                                      
 350 BIOMOLECULE: 1                                                       
 350 AUTHOR DETERMINED BIOLOGICAL UNIT: MONOMERIC                         
 350 SOFTWARE DETERMINED QUATERNARY STRUCTURE: MONOMERIC                  
 350 SOFTWARE USED: PISA                                                  
 350 APPLY THE FOLLOWING TO CHAINS: A                                     
 350   BIOMT1   1  1.000000  0.000000  0.000000        0.00000            
 350   BIOMT2   1  0.000000  1.000000  0.000000        0.00000            
 350   BIOMT3   1  0.000000  0.000000  1.000000        0.00000            
 350                                                                      
 350 BIOMOLECULE: 2                                                       
 350 AUTHOR DETERMINED BIOLOGICAL UNIT: MONOMERIC                         
 350 SOFTWARE DETERMINED QUATERNARY STRUCTURE: MONOMERIC                  
 350 SOFTWARE USED: PISA                                                  
 350 APPLY THE FOLLOWING TO CHAINS: B                                     
 350   BIOMT1   1  1.000000  0.000000  0.000000        0.00000            
 350   BIOMT2   1  0.000000  1.000000  0.000000        0.00000            
 350   BIOMT3   1  0.000000  0.000000  1.000000        0.00000            
 465                                                                      
 465 MISSING RESIDUES                                                     
 465 THE FOLLOWING RESIDUES WERE NOT LOCATED IN THE                       
 465 EXPERIMENT. (M=MODEL NUMBER; RES=RESIDUE NAME; C=CHAIN               
 465 IDENTIFIER; SSSEQ=SEQUENCE NUMBER; I=INSERTION CODE.)                
 465                                                                      
 465   M RES C SSSEQI                                                     
 465     PCA B    25                                                      
 465     THR B    26                                                      
 465     SER B    27                                                      
 500                                                                      
 500 GEOMETRY AND STEREOCHEMISTRY                                         
 500 SUBTOPIC: CLOSE CONTACTS IN SAME ASYMMETRIC UNIT                     
 500                                                                      
 500 THE FOLLOWING ATOMS ARE IN CLOSE CONTACT.                            
 500                                                                      
 500  ATM1  RES C  SSEQI   ATM2  RES C  SSEQI           DISTANCE          
 500   O    HOH B   888     O    HOH B   897              1.51            
 500  HH21  ARG A   276     O    HOH A   401              1.52            
 500  HD22  ASN B    92     O    HOH B   405              1.57            
 500   OG   SER B    70     B15  4D6 B   301              1.65            
 500   OG   SER A    70     B15  4D6 A   301              1.66            
 500   O    HOH A   778     O    HOH A   873              1.72            
 500   O    HOH B   919     O    HOH B   923              1.73            
 500   O    HOH A   533     O    HOH A   579              1.74            
 500   O    HOH A   485     O    HOH B   622              1.77            
 500   O    HOH A   847     O    HOH A   893              1.78            
 500   O    HOH A   435     O    HOH A   461              1.86            
 500   O    HOH B   416     O    HOH B   682              1.86            
 500   O    HOH B   696     O    HOH B   759              1.87            
 500   O    HOH A   778     O    HOH A   801              1.89            
 500   O    HOH A   429     O    HOH A   570              1.90            
 500   O    HOH B   433     O    HOH B   810              1.91            
 500   O    HOH A   482     O    HOH A   667              1.92            
 500   O    HOH B   416     O    HOH B   720              1.92            
 500   O    HOH A   651     O    HOH A   703              1.93            
 500   O    HOH A   849     O    HOH A   859              1.95            
 500   O    HOH B   408     O    HOH B   655              1.99            
 500   O    HOH A   534     O    HOH A   663              1.99            
 500   O    HOH B   403     O    HOH B   700              1.99            
 500   O    HOH A   872     O    HOH A   881              2.02            
 500   NH2  ARG A   276     O    HOH A   401              2.05            
 500   O    HOH A   752     O    HOH A   767              2.06            
 500   O    HOH B   790     O    HOH B   860              2.06            
 500   O    HOH B   707     O    HOH B   711              2.06            
 500   OE2  GLU B   158     O    HOH B   401              2.09            
 500   O    HOH A   646     O    HOH A   782              2.09            
 500   O    HOH B   617     O    HOH B   814              2.09            
 500   O    HOH A   412     O    HOH A   640              2.10            
 500   O    HOH A   620     O    HOH A   774              2.11            
 500   O    HOH B   578     O    HOH B   764              2.11            
 500   O    HOH B   449     O    HOH B   526              2.12            
 500   O    HOH A   401     O    HOH A   768              2.14            
 500   O    HOH A   460     O    HOH A   522              2.14            
 500   O    HOH A   631     O    HOH A   759              2.14            
 500   O    HOH B   487     O    HOH B   815              2.15            
 500   O    HOH A   720     O    HOH A   731              2.15            
 500   O    HOH A   760     O    HOH A   777              2.16            
 500   O    HOH B   422     O    HOH B   529              2.16            
 500   O    HOH B   545     O    HOH B   595              2.17            
 500   O    HOH A   888     O    HOH A   917              2.17            
 500   OG   SER B    70     O27  4D6 B   301              2.17            
 500   O    HOH A   523     O    HOH A   721              2.18            
 500   O    HOH B   574     O    HOH B   887              2.18            
 500   O    HOH A   625     O    HOH A   881              2.19            
 500   O    HOH A   420     O    HOH A   711              2.19            
 500                                                                      
 500 REMARK: NULL                                                         
 500                                                                      
 500 GEOMETRY AND STEREOCHEMISTRY                                         
 500 SUBTOPIC: CLOSE CONTACTS                                             
 500                                                                      
 500 THE FOLLOWING ATOMS THAT ARE RELATED BY CRYSTALLOGRAPHIC             
 500 SYMMETRY ARE IN CLOSE CONTACT.  AN ATOM LOCATED WITHIN 0.15          
 500 ANGSTROMS OF A SYMMETRY RELATED ATOM IS ASSUMED TO BE ON A           
 500 SPECIAL POSITION AND IS, THEREFORE, LISTED IN REMARK 375             
 500 INSTEAD OF REMARK 500.  ATOMS WITH NON-BLANK ALTERNATE               
 500 LOCATION INDICATORS ARE NOT INCLUDED IN THE CALCULATIONS.            
 500                                                                      
 500 DISTANCE CUTOFF:                                                     
 500 2.2 ANGSTROMS FOR CONTACTS NOT INVOLVING HYDROGEN ATOMS              
 500 1.6 ANGSTROMS FOR CONTACTS INVOLVING HYDROGEN ATOMS                  
 500                                                                      
 500  ATM1  RES C  SSEQI   ATM2  RES C  SSEQI  SSYMOP   DISTANCE          
 500   OE2  GLU B   158     O    HOH A   761     2545     2.02            
 500   O19  WXM B   302     O    HOH B   760     1455     2.02            
 500   NE2  GLN A    93     O    HOH A   703     1554     2.18            
 500   O4   PO4 A   303     O    HOH B   900     1554     2.19            
 500                                                                      
 500 REMARK: NULL                                                         
 500                                                                      
 500 GEOMETRY AND STEREOCHEMISTRY                                         
 500 SUBTOPIC: COVALENT BOND ANGLES                                       
 500                                                                      
 500 THE STEREOCHEMICAL PARAMETERS OF THE FOLLOWING RESIDUES              
 500 HAVE VALUES WHICH DEVIATE FROM EXPECTED VALUES BY MORE               
 500 THAN 6*RMSD (M=MODEL NUMBER; RES=RESIDUE NAME; C=CHAIN               
 500 IDENTIFIER; SSEQ=SEQUENCE NUMBER; I=INSERTION CODE).                 
 500                                                                      
 500 STANDARD TABLE:                                                      
 500 FORMAT: (10X,I3,1X,A3,1X,A1,I4,A1,3(1X,A4,2X),12X,F5.1)              
 500                                                                      
 500 EXPECTED VALUES PROTEIN: ENGH AND HUBER, 1999                        
 500 EXPECTED VALUES NUCLEIC ACID: CLOWNEY ET AL 1996                     
 500                                                                      
 500  M RES CSSEQI ATM1   ATM2   ATM3                                     
 500    ARG A  65   NE  -  CZ  -  NH1 ANGL. DEV. =   4.5 DEGREES          
 500                                                                      
 500 REMARK: NULL                                                         
 500                                                                      
 500 GEOMETRY AND STEREOCHEMISTRY                                         
 500 SUBTOPIC: TORSION ANGLES                                             
 500                                                                      
 500 TORSION ANGLES OUTSIDE THE EXPECTED RAMACHANDRAN REGIONS:            
 500 (M=MODEL NUMBER; RES=RESIDUE NAME; C=CHAIN IDENTIFIER;               
 500 SSEQ=SEQUENCE NUMBER; I=INSERTION CODE).                             
 500                                                                      
 500 STANDARD TABLE:                                                      
 500 FORMAT:(10X,I3,1X,A3,1X,A1,I4,A1,4X,F7.2,3X,F7.2)                    
 500                                                                      
 500 EXPECTED VALUES: GJ KLEYWEGT AND TA JONES (1996). PHI/PSI-           
 500 CHOLOGY: RAMACHANDRAN REVISITED. STRUCTURE 4, 1395 - 1400            
 500                                                                      
 500  M RES CSSEQI        PSI       PHI                                   
 500    CYS A  69     -139.94     50.29                                   
 500    VAL A 103     -132.54   -118.33                                   
 500    ASN A 106       48.54   -143.32                                   
 500    ASN A 106       64.33   -155.89                                   
 500    SER A 220     -126.08   -105.93                                   
 500    CYS B  69     -139.05     50.35                                   
 500    VAL B 103     -136.13   -115.02                                   
 500    SER B 220     -129.44   -106.25                                   
 500                                                                      
 500 REMARK: NULL                                                         
 525                                                                      
 525 SOLVENT                                                              
 525                                                                      
 525 THE SOLVENT MOLECULES HAVE CHAIN IDENTIFIERS THAT                    
 525 INDICATE THE POLYMER CHAIN WITH WHICH THEY ARE MOST                  
 525 CLOSELY ASSOCIATED. THE REMARK LISTS ALL THE SOLVENT                 
 525 MOLECULES WHICH ARE MORE THAN 5A AWAY FROM THE                       
 525 NEAREST POLYMER CHAIN (M = MODEL NUMBER;                             
 525 RES=RESIDUE NAME; C=CHAIN IDENTIFIER; SSEQ=SEQUENCE                  
 525 NUMBER; I=INSERTION CODE):                                           
 525                                                                      
 525  M RES CSSEQI                                                        
 525    HOH A 911        DISTANCE =  5.85 ANGSTROMS                       
 525    HOH A 912        DISTANCE =  5.90 ANGSTROMS                       
 525    HOH A 913        DISTANCE =  5.96 ANGSTROMS                       
 525    HOH A 914        DISTANCE =  5.97 ANGSTROMS                       
 525    HOH A 915        DISTANCE =  6.02 ANGSTROMS                       
 525    HOH A 916        DISTANCE =  6.15 ANGSTROMS                       
 525    HOH A 917        DISTANCE =  6.27 ANGSTROMS                       
 525    HOH A 918        DISTANCE =  6.31 ANGSTROMS                       
 525    HOH A 919        DISTANCE =  6.39 ANGSTROMS                       
 525    HOH A 920        DISTANCE =  6.81 ANGSTROMS                       
 525    HOH A 921        DISTANCE =  7.61 ANGSTROMS                       
 525    HOH B 915        DISTANCE =  5.84 ANGSTROMS                       
 525    HOH B 916        DISTANCE =  5.91 ANGSTROMS                       
 525    HOH B 917        DISTANCE =  5.92 ANGSTROMS                       
 525    HOH B 918        DISTANCE =  6.36 ANGSTROMS                       
 525    HOH B 919        DISTANCE =  6.42 ANGSTROMS                       
 525    HOH B 920        DISTANCE =  6.43 ANGSTROMS                       
 525    HOH B 921        DISTANCE =  6.56 ANGSTROMS                       
 525    HOH B 922        DISTANCE =  6.67 ANGSTROMS                       
 525    HOH B 923        DISTANCE =  6.99 ANGSTROMS                       
 525    HOH B 924        DISTANCE =  7.04 ANGSTROMS                       
 525    HOH B 925        DISTANCE =  7.71 ANGSTROMS                       
 525    HOH B 926        DISTANCE =  7.80 ANGSTROMS                       
 620                                                                      
 620 METAL COORDINATION                                                   
 620 (M=MODEL NUMBER; RES=RESIDUE NAME; C=CHAIN IDENTIFIER;               
 620 SSEQ=SEQUENCE NUMBER; I=INSERTION CODE):                             
 620                                                                      
 620 COORDINATION ANGLES FOR:  M RES CSSEQI METAL                         
 620                               K A 304   K                            
 620 N RES CSSEQI ATOM                                                    
 620 1 GLY A 147   O                                                      
 620 2 HOH A 568   O   103.6                                              
 620 3 HOH A 728   O   120.4 134.8                                        
 620 4 HOH A 749   O   121.8  56.6  89.4                                  
 620 5 HOH A 843   O   108.7  64.9 106.3 108.1                            
 620 N                    1     2     3     4                             
 620                                                                      
 620 COORDINATION ANGLES FOR:  M RES CSSEQI METAL                         
 620                               K B 305   K                            
 620 N RES CSSEQI ATOM                                                    
 620 1 GLY A 156   O                                                      
 620 2 HOH A 662   O   106.5                                              
 620 3 HOH B 498   O   107.6   1.6                                        
 620 4 HOH B 907   O   107.4   3.8   4.9                                  
 620 N                    1     2     3                                   
 800                                                                      
 800 SITE                                                                 
 800 SITE_IDENTIFIER: AC1                                                 
 800 EVIDENCE_CODE: SOFTWARE                                              
 800 SITE_DESCRIPTION: binding site for residue 4D6 A 301                 
 800                                                                      
 800 SITE_IDENTIFIER: AC2                                                 
 800 EVIDENCE_CODE: SOFTWARE                                              
 800 SITE_DESCRIPTION: binding site for residue WXM A 302                 
 800                                                                      
 800 SITE_IDENTIFIER: AC3                                                 
 800 EVIDENCE_CODE: SOFTWARE                                              
 800 SITE_DESCRIPTION: binding site for residue PO4 A 303                 
 800                                                                      
 800 SITE_IDENTIFIER: AC4                                                 
 800 EVIDENCE_CODE: SOFTWARE                                              
 800 SITE_DESCRIPTION: binding site for residue K A 304                   
 800                                                                      
 800 SITE_IDENTIFIER: AC5                                                 
 800 EVIDENCE_CODE: SOFTWARE                                              
 800 SITE_DESCRIPTION: binding site for residue WXM B 302                 
 800                                                                      
 800 SITE_IDENTIFIER: AC6                                                 
 800 EVIDENCE_CODE: SOFTWARE                                              
 800 SITE_DESCRIPTION: binding site for residue PO4 B 303                 
 800                                                                      
 800 SITE_IDENTIFIER: AC7                                                 
 800 EVIDENCE_CODE: SOFTWARE                                              
 800 SITE_DESCRIPTION: binding site for residue PO4 B 304                 
 800                                                                      
 800 SITE_IDENTIFIER: AC8                                                 
 800 EVIDENCE_CODE: SOFTWARE                                              
 800 SITE_DESCRIPTION: binding site for residue K B 305                   
 800                                                                      
 800 SITE_IDENTIFIER: AC9                                                 
 800 EVIDENCE_CODE: SOFTWARE                                              
 800 SITE_DESCRIPTION: binding site for Di-peptide 4D6 B 301 and SER B    
 800  70                                                                  

>  <DBREF1>
 6V7H A   25   290  UNP                  A0A2S1PK93_ECOLX                 
 6V7H B   25   290  UNP                  A0A2S1PK93_ECOLX                 

>  <DBREF2>
 6V7H A     A0A2S1PK93                         24         286             
 6V7H B     A0A2S1PK93                         24         286             

>  <SEQRES>
   1 A  263  PCA THR SER ALA VAL GLN GLN LYS LEU ALA ALA LEU GLU          
   2 A  263  LYS SER SER GLY GLY ARG LEU GLY VAL ALA LEU ILE ASP          
   3 A  263  THR ALA ASP ASN THR GLN VAL LEU TYR ARG GLY ASP GLU          
   4 A  263  ARG PHE PRO MET CYS SER THR SER LYS VAL MET ALA ALA          
   5 A  263  ALA ALA VAL LEU LYS GLN SER GLU THR GLN LYS GLN LEU          
   6 A  263  LEU ASN GLN PRO VAL GLU ILE LYS PRO ALA ASP LEU VAL          
   7 A  263  ASN TYR ASN PRO ILE ALA GLU LYS HIS VAL ASN GLY THR          
   8 A  263  MET THR LEU ALA GLU LEU SER ALA ALA ALA LEU GLN TYR          
   9 A  263  SER ASP ASN THR ALA MET ASN LYS LEU ILE ALA GLN LEU          
  10 A  263  GLY GLY PRO GLY GLY VAL THR ALA PHE ALA ARG ALA ILE          
  11 A  263  GLY ASP GLU THR PHE ARG LEU ASP ARG THR GLU PRO THR          
  12 A  263  LEU ASN THR ALA ILE PRO GLY ASP PRO ARG ASP THR THR          
  13 A  263  THR PRO ARG ALA MET ALA GLN THR LEU ARG GLN LEU THR          
  14 A  263  LEU GLY HIS ALA LEU GLY GLU THR GLN ARG ALA GLN LEU          
  15 A  263  VAL THR TRP LEU LYS GLY ASN THR THR GLY ALA ALA SER          
  16 A  263  ILE ARG ALA GLY LEU PRO THR SER TRP THR VAL GLY ASP          
  17 A  263  LYS THR GLY SER GLY ASP TYR GLY THR THR ASN ASP ILE          
  18 A  263  ALA VAL ILE TRP PRO GLN GLY ARG ALA PRO LEU VAL LEU          
  19 A  263  VAL THR TYR PHE THR GLN PRO GLN GLN ASN ALA GLU SER          
  20 A  263  ARG ARG ASP VAL LEU ALA SER ALA ALA ARG ILE ILE ALA          
  21 A  263  GLU GLY LEU                                                  
   1 B  263  PCA THR SER ALA VAL GLN GLN LYS LEU ALA ALA LEU GLU          
   2 B  263  LYS SER SER GLY GLY ARG LEU GLY VAL ALA LEU ILE ASP          
   3 B  263  THR ALA ASP ASN THR GLN VAL LEU TYR ARG GLY ASP GLU          
   4 B  263  ARG PHE PRO MET CYS SER THR SER LYS VAL MET ALA ALA          
   5 B  263  ALA ALA VAL LEU LYS GLN SER GLU THR GLN LYS GLN LEU          
   6 B  263  LEU ASN GLN PRO VAL GLU ILE LYS PRO ALA ASP LEU VAL          
   7 B  263  ASN TYR ASN PRO ILE ALA GLU LYS HIS VAL ASN GLY THR          
   8 B  263  MET THR LEU ALA GLU LEU SER ALA ALA ALA LEU GLN TYR          
   9 B  263  SER ASP ASN THR ALA MET ASN LYS LEU ILE ALA GLN LEU          
  10 B  263  GLY GLY PRO GLY GLY VAL THR ALA PHE ALA ARG ALA ILE          
  11 B  263  GLY ASP GLU THR PHE ARG LEU ASP ARG THR GLU PRO THR          
  12 B  263  LEU ASN THR ALA ILE PRO GLY ASP PRO ARG ASP THR THR          
  13 B  263  THR PRO ARG ALA MET ALA GLN THR LEU ARG GLN LEU THR          
  14 B  263  LEU GLY HIS ALA LEU GLY GLU THR GLN ARG ALA GLN LEU          
  15 B  263  VAL THR TRP LEU LYS GLY ASN THR THR GLY ALA ALA SER          
  16 B  263  ILE ARG ALA GLY LEU PRO THR SER TRP THR VAL GLY ASP          
  17 B  263  LYS THR GLY SER GLY ASP TYR GLY THR THR ASN ASP ILE          
  18 B  263  ALA VAL ILE TRP PRO GLN GLY ARG ALA PRO LEU VAL LEU          
  19 B  263  VAL THR TYR PHE THR GLN PRO GLN GLN ASN ALA GLU SER          
  20 B  263  ARG ARG ASP VAL LEU ALA SER ALA ALA ARG ILE ILE ALA          
  21 B  263  GLU GLY LEU                                                  

>  <MODRES>
 6V7H PCA A   25  GLN  MODIFIED RESIDUE                                   

>  <HET>
 PCA  A  25      13                                                       
 4D6  A 301      40                                                       
 WXM  A 302      21                                                       
 PO4  A 303       5                                                       
   K  A 304       1                                                       
 4D6  B 301      40                                                       
 WXM  B 302      21                                                       
 PO4  B 303       5                                                       
 PO4  B 304       5                                                       
   K  B 305       1                                                       

>  <HETNAM>
     PCA PYROGLUTAMIC ACID                                                
     4D6 {(3R,6S)-2-HYDROXY-3-[(THIOPHEN-2-YLACETYL)AMINO]-1,2-           
   2 4D6  OXABORINAN-6-YL}ACETIC ACID                                     
     WXM 2-[(3~{R},6~{S})-2,2-BIS(OXIDANYL)-3-(2-THIOPHEN-2-              
   2 WXM  YLETHANOYLAMINO)-1-OXA-2-BORANUIDACYCLOHEX-6-                   
   3 WXM  YL]ETHANOIC ACID                                                
     PO4 PHOSPHATE ION                                                    
       K POTASSIUM ION                                                    

>  <FORMUL>
   1  PCA    C5 H7 N O3                                                   
   3  4D6    2(C12 H16 B N O5 S)                                          
   4  WXM    2(C12 H17 B N O6 S 1-)                                       
   5  PO4    3(O4 P 3-)                                                   
   6    K    2(K 1+)                                                      
  12  HOH   *1047(H2 O)                                                   

>  <HELIX>
   1 AA1 SER A   27  GLY A   41  1                                  15    
   2 AA2 CYS A   69  THR A   71  5                                   3    
   3 AA3 SER A   72  GLU A   85  1                                  14    
   4 AA4 GLN A   89  ASN A   92  5                                   4    
   5 AA5 LYS A   98  LEU A  102  5                                   5    
   6 AA6 ILE A  108  VAL A  113  5                                   6    
   7 AA7 LEU A  119  SER A  130  1                                  12    
   8 AA8 ASP A  131  LEU A  142  1                                  12    
   9 AA9 GLY A  144  ILE A  155  1                                  12    
  10 AB1 PRO A  167  THR A  171  5                                   5    
  11 AB2 THR A  182  LEU A  195  1                                  14    
  12 AB3 GLY A  200  GLY A  213  1                                  14    
  13 AB4 SER A  220  LEU A  225  5                                   6    
  14 AB5 ARG A  275  LEU A  290  1                                  16    
  15 AB6 VAL B   29  GLY B   41  1                                  13    
  16 AB7 CYS B   69  THR B   71  5                                   3    
  17 AB8 SER B   72  GLU B   85  1                                  14    
  18 AB9 GLN B   89  ASN B   92  5                                   4    
  19 AC1 LYS B   98  LEU B  102  5                                   5    
  20 AC2 ILE B  108  VAL B  113  5                                   6    
  21 AC3 LEU B  119  SER B  130  1                                  12    
  22 AC4 ASP B  131  LEU B  142  1                                  12    
  23 AC5 GLY B  144  ILE B  155  1                                  12    
  24 AC6 PRO B  167  THR B  171  5                                   5    
  25 AC7 THR B  182  LEU B  195  1                                  14    
  26 AC8 GLY B  200  GLY B  213  1                                  14    
  27 AC9 SER B  220  LEU B  225  5                                   6    
  28 AD1 ARG B  275  GLY B  289  1                                  15    

>  <SHEET>
   1 AA1 5 GLN A  56  TYR A  60  0                                        
   2 AA1 5 ARG A  43  ASP A  50 -1  N  LEU A  48   O  VAL A  57           
   3 AA1 5 LEU A 259  THR A 266 -1  O  TYR A 264   N  GLY A  45           
   4 AA1 5 THR A 243  TRP A 251 -1  N  ILE A 250   O  LEU A 259           
   5 AA1 5 THR A 230  GLY A 238 -1  N  THR A 230   O  TRP A 251           
   1 AA2 2 PHE A  66  PRO A  67  0                                        
   2 AA2 2 THR A 180  THR A 181 -1  O  THR A 181   N  PHE A  66           
   1 AA3 2 PRO A  94  ILE A  97  0                                        
   2 AA3 2 GLY A 115  THR A 118 -1  O  GLY A 115   N  ILE A  97           
   1 AA4 5 GLN B  56  TYR B  60  0                                        
   2 AA4 5 ARG B  43  ASP B  50 -1  N  VAL B  46   O  TYR B  60           
   3 AA4 5 LEU B 259  THR B 266 -1  O  TYR B 264   N  GLY B  45           
   4 AA4 5 THR B 243  TRP B 251 -1  N  ILE B 250   O  LEU B 259           
   5 AA4 5 THR B 230  GLY B 238 -1  N  THR B 230   O  TRP B 251           
   1 AA5 2 PHE B  66  PRO B  67  0                                        
   2 AA5 2 THR B 180  THR B 181 -1  O  THR B 181   N  PHE B  66           
   1 AA6 2 PRO B  94  ILE B  97  0                                        
   2 AA6 2 GLY B 115  THR B 118 -1  O  GLY B 115   N  ILE B  97           

>  <LINK>
       C   PCA A  25                 N   THR A  26     1555   1555  1.33  
       OG  SER A  70                 B15A4D6 A 301     1555   1555  1.62  
       OG  SER B  70                 B15A4D6 B 301     1555   1555  1.61  
       O   GLY A 147                 K     K A 304     1555   1555  2.72  
       O   GLY A 156                 K     K B 305     1555   2454  2.77  
       K     K A 304                 O   HOH A 568     1555   1555  3.04  
       K     K A 304                 O   HOH A 728     1555   1555  2.64  
       K     K A 304                 O   HOH A 749     1555   1555  2.81  
       K     K A 304                 O   HOH A 843     1555   1555  2.81  
       O   HOH A 662                 K     K B 305     2444   1555  2.72  
       K     K B 305                 O   HOH B 498     1555   1555  2.76  
       K     K B 305                 O   HOH B 907     1555   1555  2.72  

>  <CISPEP>
   1 GLU A  166    PRO A  167          0         4.83                     
   2 GLU B  166    PRO B  167          0         7.14                     

>  <SITE>
   1 AC1 17 CYS A  69  SER A  70  LYS A  73  ASN A 104                    
   2 AC1 17 SER A 130  ASN A 132  PRO A 167  ASN A 170                    
   3 AC1 17 LYS A 234  THR A 235  GLY A 236  SER A 237                    
   4 AC1 17 ASP A 240  ARG A 276  WXM A 302  HOH A 416                    
   5 AC1 17 HOH A 421                                                     
   1 AC2  7 ASN A 104  TYR A 105  4D6 A 301  HOH A 410                    
   2 AC2  7 HOH A 516  THR B 227  WXM B 302                               
   1 AC3  9 LYS A 111  HOH A 426  HOH A 445  HOH A 494                    
   2 AC3  9 HOH A 501  LYS B  38  HOH B 803  HOH B 900                    
   3 AC3  9 HOH B 906                                                     
   1 AC4  6 GLY A 147  ALA A 150  HOH A 568  HOH A 728                    
   2 AC4  6 HOH A 749  HOH A 843                                          
   1 AC5  9 THR A 227  WXM A 302  HOH A 674  ASN B 104                    
   2 AC5  9 TYR B 105  4D6 B 301  HOH B 410  HOH B 672                    
   3 AC5  9 HOH B 760                                                     
   1 AC6  6 THR B 202  GLN B 203  HOH B 412  HOH B 435                    
   2 AC6  6 HOH B 450  HOH B 819                                          
   1 AC7  6 HIS B 197  ARG B 204  HOH B 425  HOH B 445                    
   2 AC7  6 HOH B 552  HOH B 660                                          
   1 AC8  2 HOH B 498  HOH B 907                                          
   1 AC9 19 MET B  68  CYS B  69  THR B  71  SER B  72                    
   2 AC9 19 LYS B  73  ASN B 104  SER B 130  ASN B 132                    
   3 AC9 19 PRO B 167  ASN B 170  LYS B 234  THR B 235                    
   4 AC9 19 GLY B 236  SER B 237  ASP B 240  ARG B 276                    
   5 AC9 19 WXM B 302  HOH B 413  HOH B 415                               

>  <ORIGX1>
      1.000000  0.000000  0.000000        0.00000                         

>  <ORIGX2>
      0.000000  1.000000  0.000000        0.00000                         

>  <ORIGX3>
      0.000000  0.000000  1.000000        0.00000                         

>  <SCALE1>
      0.022075  0.000000  0.004547        0.00000                         

>  <SCALE2>
      0.000000  0.009373  0.000000        0.00000                         

>  <SCALE3>
      0.000000  0.000000  0.021331        0.00000                         

>  <ANISOU>
  651  N   SER A  70      519    339    405    -36    197    -32       N  
  652  CA  SER A  70      563    395    417    -39    194    -15       C  
  653  C   SER A  70      515    445    337    -89    208    -35       C  
  654  O   SER A  70      577    439    391      8    192    -77       O  
  655  CB  SER A  70      612    421    427     -7    250    -31       C  
  656  OG  SER A  70      684    500    367     84    184    -19       O  
 8205  C1 A4D6 A 301      664    703    595   -108     54   -162       C  
 8206  C1 B4D6 A 301      897    793    794    -14     77     13       C  
 8207  C3 A4D6 A 301      619    661    469    -24    121   -144       C  
 8208  C3 B4D6 A 301      753    772    677     84     96     -9       C  
 8209  C5 A4D6 A 301      617    702    578   -127     14   -104       C  
 8210  C5 B4D6 A 301      881    821    786     81    118    -43       C  
 8211  C7 A4D6 A 301      854    622    430    -69    260    -71       C  
 8212  C7 B4D6 A 301      635    652    624    115    151    -45       C  
 8213  C11A4D6 A 301     1176    516    788    -23    407    -87       C  
 8214  C11B4D6 A 301      529    601    521     94     82    -52       C  
 8215  C12A4D6 A 301     1201    495    719    -72    355    -74       C  
 8216  C12B4D6 A 301      545    600    486     19    134    -27       C  
 8217  C14A4D6 A 301     1183    460    745    -86    335    -17       C  
 8218  C14B4D6 A 301      549    572    476     -8    101     18       C  
 8219  C17A4D6 A 301     1160    417    819      3    325     57       C  
 8220  C17B4D6 A 301      508    578    642     37     90     56       C  
 8221  O20A4D6 A 301     1206    442    735     74    272     78       O1-
 8222  O20B4D6 A 301      618    509    919   -115    -34    -25       O1-
 8223  C18A4D6 A 301     1212    405    794      9    291     83       C  
 8224  C18B4D6 A 301      667    595    913    -27    202     56       C  
 8225  O19A4D6 A 301     1270    362    873    -23    277     54       O  
 8226  O19B4D6 A 301      917    715   1169     61    528     70       O  
 8227  O16A4D6 A 301     1125    489    683   -110    300    -44       O  
 8228  O16B4D6 A 301      479    579    453     37    217     19       O  
 8229  B15A4D6 A 301      950    504    581    -87    311    -42       B  
 8230  B15B4D6 A 301      639    555    470     56    253    -13       B  
 8231  O27A4D6 A 301      943    502    755   -216    248    -14       O  
 8232  O27B4D6 A 301      674    538    366    153    242      4       O  
 8233  C34A4D6 A 301     1013    530    591    -48    326    -92       C  
 8234  C34B4D6 A 301      589    592    505     58     98    -39       C  
 8235  N9 A4D6 A 301      982    602    551    -38    352   -101       N  
 8236  N9 B4D6 A 301      491    597    562    111     80    -84       N  
 8237  O8 A4D6 A 301      794    613    331   -125    219     26       O  
 8238  O8 B4D6 A 301      544    650    677    154    194    -22       O  
 8239  C6 A4D6 A 301      689    646    423    -17    252   -142       C  
 8240  C6 B4D6 A 301      718    723    598     99    106    -58       C  
 8241  S2 A4D6 A 301      687    675    510    -70    123   -172       S  
 8242  S2 B4D6 A 301      833    808    763    -41    206      5       S  
 8243  C4 A4D6 A 301      577    685    522   -115     67   -145       C  
 8244  C4 B4D6 A 301      815    805    697     82     91    -32       C  

>  <MASTER>
      449    0   10   28   18    0   25    6 5053    2  163   42          

$$$$
