start_structures/Ligand_Substrate/Ligand_Complex_Stripped/4OV_4ZJ2.pdb
 OpenBabel08222315203D

 36 36  0  0  1  0  0  0  0  0999 V2000
  -15.7030   10.3110  -19.9670 C   0  0  0  0  0  0  0  0  0  0  0  0
  -15.4180    6.6260  -17.3310 C   0  0  0  0  0  0  0  0  0  0  0  0
  -18.5530   10.4090  -20.5510 C   0  0  0  0  0  0  0  0  0  0  0  0
  -18.7650    5.3470  -17.6990 C   0  0  0  0  0  0  0  0  0  0  0  0
  -22.1260    8.6090  -17.5950 C   0  0  0  0  0  0  0  0  0  0  0  0
  -22.3470    8.5030  -18.9530 C   0  0  0  0  0  0  0  0  0  0  0  0
  -17.7860    6.4070  -20.7440 S   0  0  0  0  0  0  0  0  0  0  0  0
  -21.1170    6.4440  -18.9790 C   0  0  0  0  0  0  0  0  0  0  0  0
  -21.3670    7.6350  -16.9420 C   0  0  0  0  0  0  0  0  0  0  0  0
  -20.0870    5.6410  -16.9750 C   0  0  2  0  0  0  0  0  0  0  0  0
  -17.8390    9.0980  -20.2640 C   0  0  0  0  0  0  0  0  0  0  0  0
  -16.1810   11.3740  -19.6490 O   0  0  0  0  0  0  0  0  0  0  0  0
  -14.4950   10.2500  -20.2100 O   0  0  0  0  0  0  0  0  0  0  0  0
  -16.5350    9.0690  -19.9870 C   0  0  0  0  0  0  0  0  0  0  0  0
  -15.8450    7.9210  -19.6930 N   0  0  0  0  0  0  0  0  0  0  0  0
  -18.6920    7.8850  -20.1830 C   0  0  0  0  0  0  0  0  0  0  0  0
  -16.3590    6.5800  -19.6520 C   0  0  1  0  0  0  0  0  0  0  0  0
  -16.5100    6.0540  -18.2090 C   0  0  2  0  0  0  0  0  0  0  0  0
  -15.6420    7.5480  -16.5620 O   0  0  0  0  0  0  0  0  0  0  0  0
  -14.1800    6.3070  -17.7660 O   0  0  0  0  0  0  0  0  0  0  0  0
  -13.1080    7.1380  -17.4280 C   0  0  0  0  0  0  0  0  0  0  0  0
  -12.5380    6.7750  -16.0520 C   0  0  1  0  0  0  0  0  0  0  0  0
  -11.1590    7.4240  -15.9210 C   0  0  0  0  0  0  0  0  0  0  0  0
  -10.2570    7.0880  -16.6940 O   0  0  0  0  0  0  0  0  0  0  0  0
  -13.4410    7.0270  -14.9760 N   0  0  0  0  0  0  0  0  0  0  0  0
  -17.8400    6.2940  -17.6590 N   0  0  0  0  0  0  0  0  0  0  0  0
  -18.5830    4.2940  -18.2580 O   0  0  0  0  0  0  0  0  0  0  0  0
  -20.8150    4.3740  -16.8370 N   0  0  0  0  0  0  0  0  0  0  0  0
  -20.8330    6.5850  -17.6310 C   0  0  0  0  0  0  0  0  0  0  0  0
  -21.8750    7.4070  -19.6430 C   0  0  0  0  0  0  0  0  0  0  0  0
  -10.9420   12.5480  -18.7250 N   0  0  0  0  0  0  0  0  0  0  0  0
  -12.1870   12.7940  -18.0700 C   0  0  2  0  0  0  0  0  0  0  0  0
  -12.7310   11.5050  -17.4290 C   0  0  0  0  0  0  0  0  0  0  0  0
  -12.2640   10.3930  -17.6860 O   0  0  0  0  0  0  0  0  0  0  0  0
  -13.1780   13.3540  -19.0660 C   0  0  0  0  0  0  0  0  0  0  0  0
  -13.3100   12.5370  -20.1940 O   0  0  0  0  0  0  0  0  0  0  0  0
  1 12  2  0  0  0  0
  1 13  1  0  0  0  0
  1 14  1  0  0  0  0
  2 19  2  0  0  0  0
  2 20  1  0  0  0  0
  3 11  1  0  0  0  0
  4 10  1  0  0  0  0
  4 26  1  0  0  0  0
  4 27  2  0  0  0  0
  5  6  2  0  0  0  0
  5  9  1  0  0  0  0
  6 30  1  0  0  0  0
  7 16  1  0  0  0  0
  7 17  1  0  0  0  0
  8 29  1  0  0  0  0
  8 30  2  0  0  0  0
  9 29  2  0  0  0  0
 10 28  1  6  0  0  0
 10 29  1  0  0  0  0
 11 14  2  0  0  0  0
 11 16  1  0  0  0  0
 14 15  1  0  0  0  0
 15 17  1  0  0  0  0
 17 18  1  1  0  0  0
 18  2  1  1  0  0  0
 18 26  1  0  0  0  0
 20 21  1  0  0  0  0
 21 22  1  0  0  0  0
 22 23  1  0  0  0  0
 22 25  1  1  0  0  0
 23 24  2  0  0  0  0
 32 31  1  6  0  0  0
 32 33  1  0  0  0  0
 34 33  2  0  0  0  0
 35 32  1  0  0  0  0
 36 35  1  0  0  0  0
M  END
>  <HEADER>
    HYDROLASE                               28-APR-15   4ZJ2              

>  <TITLE>
    CRYSTAL STRUCTURE OF P-ACRYLAMIDO-PHENYLALANINE MODIFIED TEM1 BETA-   
   2 LACTAMASE FROM ESCHERICHIA COLI :E166N MUTANT                        

>  <COMPND>
    MOL_ID: 1;                                                            
   2 MOLECULE: BETA-LACTAMASE TEM;                                        
   3 CHAIN: A;                                                            
   4 SYNONYM: IRT-4,PENICILLINASE,TEM-1,TEM-16/CAZ-7,TEM-2,TEM-24/CAZ-6,  
   5 TEM-3,TEM-4,TEM-5,TEM-6,TEM-8/CAZ-2;                                 
   6 EC: 3.5.2.6;                                                         
   7 ENGINEERED: YES;                                                     
   8 MUTATION: YES                                                        

>  <SOURCE>
    MOL_ID: 1;                                                            
   2 ORGANISM_SCIENTIFIC: ESCHERICHIA COLI;                               
   3 ORGANISM_TAXID: 562;                                                 
   4 GENE: BLA, BLAT-3, BLAT-4, BLAT-5, BLAT-6;                           
   5 EXPRESSION_SYSTEM: ESCHERICHIA COLI;                                 
   6 EXPRESSION_SYSTEM_TAXID: 562                                         

>  <KEYWDS>
    NONCANONICAL AMINO ACID, BETA-LACTAMASE, PROTEIN EVOLUTION,           
   2 EVOLUTIONARY ADVANTAGE, HYDROLASE                                    

>  <EXPDTA>
    X-RAY DIFFRACTION                                                     

>  <AUTHOR>
    H.XIAO,F.NASERTORABI,S.CHOI,G.W.HAN,S.A.REED,C.S.STEVENS,P.G.SCHULTZ  

>  <REVDAT>
   2   17-JUN-15 4ZJ2    1       JRNL                                     
   1   20-MAY-15 4ZJ2    0                                                

>  <JRNL>
      AUTH   H.XIAO,F.NASERTORABI,S.H.CHOI,G.W.HAN,S.A.REED,R.C.STEVENS,  
      AUTH 2 P.G.SCHULTZ                                                  
      TITL   EXPLORING THE POTENTIAL IMPACT OF AN EXPANDED GENETIC CODE   
      TITL 2 ON PROTEIN FUNCTION.                                         
      REF    PROC.NATL.ACAD.SCI.USA        V. 112  6961 2015              
      REFN                   ESSN 1091-6490                               
      PMID   26038548                                                     
      DOI    10.1073/PNAS.1507741112                                      

>  <REMARK>
   2                                                                      
   2 RESOLUTION.    1.80 ANGSTROMS.                                       
   3                                                                      
   3 REFINEMENT.                                                          
   3   PROGRAM     : REFMAC 5.8.0103                                      
   3   AUTHORS     : MURSHUDOV,VAGIN,DODSON                               
   3                                                                      
   3    REFINEMENT TARGET : MAXIMUM LIKELIHOOD                            
   3                                                                      
   3  DATA USED IN REFINEMENT.                                            
   3   RESOLUTION RANGE HIGH (ANGSTROMS) : 1.80                           
   3   RESOLUTION RANGE LOW  (ANGSTROMS) : 25.00                          
   3   DATA CUTOFF            (SIGMA(F)) : NULL                           
   3   COMPLETENESS FOR RANGE        (%) : 99.9                           
   3   NUMBER OF REFLECTIONS             : 25336                          
   3                                                                      
   3  FIT TO DATA USED IN REFINEMENT.                                     
   3   CROSS-VALIDATION METHOD          : THROUGHOUT                      
   3   FREE R VALUE TEST SET SELECTION  : RANDOM                          
   3   R VALUE     (WORKING + TEST SET) : 0.168                           
   3   R VALUE            (WORKING SET) : 0.165                           
   3   FREE R VALUE                     : 0.209                           
   3   FREE R VALUE TEST SET SIZE   (%) : 5.000                           
   3   FREE R VALUE TEST SET COUNT      : 1343                            
   3                                                                      
   3  FIT IN THE HIGHEST RESOLUTION BIN.                                  
   3   TOTAL NUMBER OF BINS USED           : 20                           
   3   BIN RESOLUTION RANGE HIGH       (A) : 1.80                         
   3   BIN RESOLUTION RANGE LOW        (A) : 1.85                         
   3   REFLECTION IN BIN     (WORKING SET) : 1833                         
   3   BIN COMPLETENESS (WORKING+TEST) (%) : 100.0                        
   3   BIN R VALUE           (WORKING SET) : 0.2460                       
   3   BIN FREE R VALUE SET COUNT          : 85                           
   3   BIN FREE R VALUE                    : 0.2960                       
   3                                                                      
   3  NUMBER OF NON-HYDROGEN ATOMS USED IN REFINEMENT.                    
   3   PROTEIN ATOMS            : 2062                                    
   3   NUCLEIC ACID ATOMS       : 0                                       
   3   HETEROGEN ATOMS          : 0                                       
   3   SOLVENT ATOMS            : 213                                     
   3                                                                      
   3  B VALUES.                                                           
   3   FROM WILSON PLOT           (A**2) : NULL                           
   3   MEAN B VALUE      (OVERALL, A**2) : 23.71                          
   3   OVERALL ANISOTROPIC B VALUE.                                       
   3    B11 (A**2) : 0.90000                                              
   3    B22 (A**2) : 1.14000                                              
   3    B33 (A**2) : -2.04000                                             
   3    B12 (A**2) : 0.00000                                              
   3    B13 (A**2) : 0.00000                                              
   3    B23 (A**2) : 0.00000                                              
   3                                                                      
   3  ESTIMATED OVERALL COORDINATE ERROR.                                 
   3   ESU BASED ON R VALUE                            (A): 0.115         
   3   ESU BASED ON FREE R VALUE                       (A): 0.116         
   3   ESU BASED ON MAXIMUM LIKELIHOOD                 (A): 0.087         
   3   ESU FOR B VALUES BASED ON MAXIMUM LIKELIHOOD (A**2): 5.667         
   3                                                                      
   3 CORRELATION COEFFICIENTS.                                            
   3   CORRELATION COEFFICIENT FO-FC      : 0.967                         
   3   CORRELATION COEFFICIENT FO-FC FREE : 0.942                         
   3                                                                      
   3  RMS DEVIATIONS FROM IDEAL VALUES        COUNT    RMS    WEIGHT      
   3   BOND LENGTHS REFINED ATOMS        (A):  2153 ; 0.015 ; 0.019       
   3   BOND LENGTHS OTHERS               (A):  2081 ; 0.003 ; 0.020       
   3   BOND ANGLES REFINED ATOMS   (DEGREES):  2925 ; 1.827 ; 1.979       
   3   BOND ANGLES OTHERS          (DEGREES):  4788 ; 1.180 ; 3.004       
   3   TORSION ANGLES, PERIOD 1    (DEGREES):   273 ; 6.012 ; 5.037       
   3   TORSION ANGLES, PERIOD 2    (DEGREES):    93 ;38.700 ;23.978       
   3   TORSION ANGLES, PERIOD 3    (DEGREES):   374 ;15.176 ;15.000       
   3   TORSION ANGLES, PERIOD 4    (DEGREES):    18 ;16.118 ;15.000       
   3   CHIRAL-CENTER RESTRAINTS       (A**3):   333 ; 0.132 ; 0.200       
   3   GENERAL PLANES REFINED ATOMS      (A):  2458 ; 0.008 ; 0.021       
   3   GENERAL PLANES OTHERS             (A):   473 ; 0.002 ; 0.020       
   3   NON-BONDED CONTACTS REFINED ATOMS (A):  NULL ;  NULL ;  NULL       
   3   NON-BONDED CONTACTS OTHERS        (A):  NULL ;  NULL ;  NULL       
   3   NON-BONDED TORSION REFINED ATOMS  (A):  NULL ;  NULL ;  NULL       
   3   NON-BONDED TORSION OTHERS         (A):  NULL ;  NULL ;  NULL       
   3   H-BOND (X...Y) REFINED ATOMS      (A):  NULL ;  NULL ;  NULL       
   3   H-BOND (X...Y) OTHERS             (A):  NULL ;  NULL ;  NULL       
   3   POTENTIAL METAL-ION REFINED ATOMS (A):  NULL ;  NULL ;  NULL       
   3   POTENTIAL METAL-ION OTHERS        (A):  NULL ;  NULL ;  NULL       
   3   SYMMETRY VDW REFINED ATOMS        (A):  NULL ;  NULL ;  NULL       
   3   SYMMETRY VDW OTHERS               (A):  NULL ;  NULL ;  NULL       
   3   SYMMETRY H-BOND REFINED ATOMS     (A):  NULL ;  NULL ;  NULL       
   3   SYMMETRY H-BOND OTHERS            (A):  NULL ;  NULL ;  NULL       
   3   SYMMETRY METAL-ION REFINED ATOMS  (A):  NULL ;  NULL ;  NULL       
   3   SYMMETRY METAL-ION OTHERS         (A):  NULL ;  NULL ;  NULL       
   3                                                                      
   3  ISOTROPIC THERMAL FACTOR RESTRAINTS.     COUNT   RMS    WEIGHT      
   3   MAIN-CHAIN BOND REFINED ATOMS  (A**2):  1087 ; 1.801 ; 3.335       
   3   MAIN-CHAIN BOND OTHER ATOMS    (A**2):  1086 ; 1.782 ; 3.330       
   3   MAIN-CHAIN ANGLE REFINED ATOMS (A**2):  1364 ; 2.382 ; 6.227       
   3   MAIN-CHAIN ANGLE OTHER ATOMS   (A**2):  1365 ; 2.393 ; 6.232       
   3   SIDE-CHAIN BOND REFINED ATOMS  (A**2):  1066 ; 3.875 ; 4.205       
   3   SIDE-CHAIN BOND OTHER ATOMS    (A**2):  1067 ; 3.873 ; 4.207       
   3   SIDE-CHAIN ANGLE REFINED ATOMS (A**2):  NULL ;  NULL ;  NULL       
   3   SIDE-CHAIN ANGLE OTHER ATOMS   (A**2):  1562 ; 5.770 ; 7.472       
   3   LONG RANGE B REFINED ATOMS     (A**2):  9998 ; 6.282 ;21.302       
   3   LONG RANGE B OTHER ATOMS       (A**2):  9815 ; 6.209 ;21.016       
   3                                                                      
   3 ANISOTROPIC THERMAL FACTOR RESTRAINTS.    COUNT   RMS   WEIGHT       
   3   RIGID-BOND RESTRAINTS          (A**2):  NULL ;  NULL ;  NULL       
   3   SPHERICITY; FREE ATOMS         (A**2):  NULL ;  NULL ;  NULL       
   3   SPHERICITY; BONDED ATOMS       (A**2):  NULL ;  NULL ;  NULL       
   3                                                                      
   3  NCS RESTRAINTS STATISTICS                                           
   3   NUMBER OF DIFFERENT NCS GROUPS : NULL                              
   3                                                                      
   3  TLS DETAILS                                                         
   3   NUMBER OF TLS GROUPS  : 1                                          
   3                                                                      
   3   TLS GROUP : 1                                                      
   3    NUMBER OF COMPONENTS GROUP : 1                                    
   3    COMPONENTS        C SSSEQI   TO  C SSSEQI                         
   3    RESIDUE RANGE :   A    26        A   292                          
   3    ORIGIN FOR THE GROUP (A):  -8.0296  10.6447 -15.4196              
   3    T TENSOR                                                          
   3      T11:   0.0367 T22:   0.0349                                     
   3      T33:   0.0093 T12:   0.0092                                     
   3      T13:   0.0027 T23:  -0.0005                                     
   3    L TENSOR                                                          
   3      L11:   0.2557 L22:   0.5184                                     
   3      L33:   0.4674 L12:   0.0341                                     
   3      L13:   0.1180 L23:   0.4227                                     
   3    S TENSOR                                                          
   3      S11:   0.0348 S12:   0.0259 S13:   0.0014                       
   3      S21:   0.0557 S22:  -0.0523 S23:  -0.0035                       
   3      S31:   0.0263 S32:  -0.0497 S33:   0.0175                       
   3                                                                      
   3  BULK SOLVENT MODELLING.                                             
   3   METHOD USED : MASK                                                 
   3   PARAMETERS FOR MASK CALCULATION                                    
   3   VDW PROBE RADIUS   : 1.20                                          
   3   ION PROBE RADIUS   : 0.80                                          
   3   SHRINKAGE RADIUS   : 0.80                                          
   3                                                                      
   3  OTHER REFINEMENT REMARKS: HYDROGENS HAVE BEEN ADDED IN THE RIDING   
   3  POSITIONS                                                           
   4                                                                      
   4 4ZJ2 COMPLIES WITH FORMAT V. 3.30, 13-JUL-11                         
 100                                                                      
 100 THIS ENTRY HAS BEEN PROCESSED BY RCSB ON 29-APR-15.                  
 100 THE DEPOSITION ID IS D_1000209386.                                   
 200                                                                      
 200 EXPERIMENTAL DETAILS                                                 
 200  EXPERIMENT TYPE                : X-RAY DIFFRACTION                  
 200  DATE OF DATA COLLECTION        : 11-DEC-14                          
 200  TEMPERATURE           (KELVIN) : 100                                
 200  PH                             : 7.8                                
 200  NUMBER OF CRYSTALS USED        : NULL                               
 200                                                                      
 200  SYNCHROTRON              (Y/N) : Y                                  
 200  RADIATION SOURCE               : SSRL                               
 200  BEAMLINE                       : BL11-1                             
 200  X-RAY GENERATOR MODEL          : NULL                               
 200  MONOCHROMATIC OR LAUE    (M/L) : M                                  
 200  WAVELENGTH OR RANGE        (A) : 0.979                              
 200  MONOCHROMATOR                  : NULL                               
 200  OPTICS                         : NULL                               
 200                                                                      
 200  DETECTOR TYPE                  : PIXEL                              
 200  DETECTOR MANUFACTURER          : PSI PILATUS 6M                     
 200  INTENSITY-INTEGRATION SOFTWARE : IMOSFLM                            
 200  DATA SCALING SOFTWARE          : SCALA                              
 200                                                                      
 200  NUMBER OF UNIQUE REFLECTIONS   : 26744                              
 200  RESOLUTION RANGE HIGH      (A) : 1.800                              
 200  RESOLUTION RANGE LOW       (A) : 37.860                             
 200  REJECTION CRITERIA  (SIGMA(I)) : NULL                               
 200                                                                      
 200 OVERALL.                                                             
 200  COMPLETENESS FOR RANGE     (%) : 100.0                              
 200  DATA REDUNDANCY                : 8.100                              
 200  R MERGE                    (I) : 0.09700                            
 200  R SYM                      (I) : NULL                               
 200  <I/SIGMA(I)> FOR THE DATA SET  : 15.0000                            
 200                                                                      
 200 IN THE HIGHEST RESOLUTION SHELL.                                     
 200  HIGHEST RESOLUTION SHELL, RANGE HIGH (A) : 1.80                     
 200  HIGHEST RESOLUTION SHELL, RANGE LOW  (A) : 1.90                     
 200  COMPLETENESS FOR SHELL     (%) : 100.0                              
 200  DATA REDUNDANCY IN SHELL       : 8.40                               
 200  R MERGE FOR SHELL          (I) : 0.60400                            
 200  R SYM FOR SHELL            (I) : NULL                               
 200  <I/SIGMA(I)> FOR SHELL         : 3.000                              
 200                                                                      
 200 DIFFRACTION PROTOCOL: SINGLE WAVELENGTH                              
 200 METHOD USED TO DETERMINE THE STRUCTURE: MOLECULAR REPLACEMENT        
 200 SOFTWARE USED: PHASER                                                
 200 STARTING MODEL: PDB ENTRY 1BTL                                       
 200                                                                      
 200 REMARK: NULL                                                         
 280                                                                      
 280 CRYSTAL                                                              
 280 SOLVENT CONTENT, VS   (%): 41.40                                     
 280 MATTHEWS COEFFICIENT, VM (ANGSTROMS**3/DA): 2.10                     
 280                                                                      
 280 CRYSTALLIZATION CONDITIONS: 0.1M 2-(N-MORPHOLINO) ETHANESULFONIC     
 280  ACID (MES) PH 6.5, 15% PEG 20.000 AND 15% PEG 550MME, PH 7.8,       
 280  VAPOR DIFFUSION, HANGING DROP, TEMPERATURE 295K                     
 290                                                                      
 290 CRYSTALLOGRAPHIC SYMMETRY                                            
 290 SYMMETRY OPERATORS FOR SPACE GROUP: P 21 21 21                       
 290                                                                      
 290      SYMOP   SYMMETRY                                                
 290     NNNMMM   OPERATOR                                                
 290       1555   X,Y,Z                                                   
 290       2555   -X+1/2,-Y,Z+1/2                                         
 290       3555   -X,Y+1/2,-Z+1/2                                         
 290       4555   X+1/2,-Y+1/2,-Z                                         
 290                                                                      
 290     WHERE NNN -> OPERATOR NUMBER                                     
 290           MMM -> TRANSLATION VECTOR                                  
 290                                                                      
 290 CRYSTALLOGRAPHIC SYMMETRY TRANSFORMATIONS                            
 290 THE FOLLOWING TRANSFORMATIONS OPERATE ON THE ATOM/HETATM             
 290 RECORDS IN THIS ENTRY TO PRODUCE CRYSTALLOGRAPHICALLY                
 290 RELATED MOLECULES.                                                   
 290   SMTRY1   1  1.000000  0.000000  0.000000        0.00000            
 290   SMTRY2   1  0.000000  1.000000  0.000000        0.00000            
 290   SMTRY3   1  0.000000  0.000000  1.000000        0.00000            
 290   SMTRY1   2 -1.000000  0.000000  0.000000       23.23050            
 290   SMTRY2   2  0.000000 -1.000000  0.000000        0.00000            
 290   SMTRY3   2  0.000000  0.000000  1.000000       63.79000            
 290   SMTRY1   3 -1.000000  0.000000  0.000000        0.00000            
 290   SMTRY2   3  0.000000  1.000000  0.000000       23.52200            
 290   SMTRY3   3  0.000000  0.000000 -1.000000       63.79000            
 290   SMTRY1   4  1.000000  0.000000  0.000000       23.23050            
 290   SMTRY2   4  0.000000 -1.000000  0.000000       23.52200            
 290   SMTRY3   4  0.000000  0.000000 -1.000000        0.00000            
 290                                                                      
 290 REMARK: NULL                                                         
 300                                                                      
 300 BIOMOLECULE: 1                                                       
 300 SEE REMARK 350 FOR THE AUTHOR PROVIDED AND/OR PROGRAM                
 300 GENERATED ASSEMBLY INFORMATION FOR THE STRUCTURE IN                  
 300 THIS ENTRY. THE REMARK MAY ALSO PROVIDE INFORMATION ON               
 300 BURIED SURFACE AREA.                                                 
 350                                                                      
 350 COORDINATES FOR A COMPLETE MULTIMER REPRESENTING THE KNOWN           
 350 BIOLOGICALLY SIGNIFICANT OLIGOMERIZATION STATE OF THE                
 350 MOLECULE CAN BE GENERATED BY APPLYING BIOMT TRANSFORMATIONS          
 350 GIVEN BELOW.  BOTH NON-CRYSTALLOGRAPHIC AND                          
 350 CRYSTALLOGRAPHIC OPERATIONS ARE GIVEN.                               
 350                                                                      
 350 BIOMOLECULE: 1                                                       
 350 AUTHOR DETERMINED BIOLOGICAL UNIT: MONOMERIC                         
 350 SOFTWARE DETERMINED QUATERNARY STRUCTURE: MONOMERIC                  
 350 SOFTWARE USED: PISA                                                  
 350 APPLY THE FOLLOWING TO CHAINS: A                                     
 350   BIOMT1   1  1.000000  0.000000  0.000000        0.00000            
 350   BIOMT2   1  0.000000  1.000000  0.000000        0.00000            
 350   BIOMT3   1  0.000000  0.000000  1.000000        0.00000            
 465                                                                      
 465 MISSING RESIDUES                                                     
 465 THE FOLLOWING RESIDUES WERE NOT LOCATED IN THE                       
 465 EXPERIMENT. (M=MODEL NUMBER; RES=RESIDUE NAME; C=CHAIN               
 465 IDENTIFIER; SSSEQ=SEQUENCE NUMBER; I=INSERTION CODE.)                
 465                                                                      
 465   M RES C SSSEQI                                                     
 465     MET A     3                                                      
 465     SER A     4                                                      
 465     ILE A     5                                                      
 465     GLN A     6                                                      
 465     HIS A     7                                                      
 465     PHE A     8                                                      
 465     ARG A     9                                                      
 465     VAL A    10                                                      
 465     ALA A    11                                                      
 465     LEU A    12                                                      
 465     ILE A    13                                                      
 465     PRO A    14                                                      
 465     PHE A    15                                                      
 465     PHE A    16                                                      
 465     ALA A    17                                                      
 465     ALA A    18                                                      
 465     PHE A    19                                                      
 465     CYS A    20                                                      
 465     LEU A    21                                                      
 465     PRO A    22                                                      
 465     VAL A    23                                                      
 465     PHE A    24                                                      
 465     ALA A    25                                                      
 465     ALA A   293                                                      
 465     LEU A   294                                                      
 465     GLU A   295                                                      
 465     HIS A   296                                                      
 465     HIS A   297                                                      
 465     HIS A   298                                                      
 465     HIS A   299                                                      
 465     HIS A   300                                                      
 465     HIS A   301                                                      
 500                                                                      
 500 GEOMETRY AND STEREOCHEMISTRY                                         
 500 SUBTOPIC: COVALENT BOND ANGLES                                       
 500                                                                      
 500 THE STEREOCHEMICAL PARAMETERS OF THE FOLLOWING RESIDUES              
 500 HAVE VALUES WHICH DEVIATE FROM EXPECTED VALUES BY MORE               
 500 THAN 6*RMSD (M=MODEL NUMBER; RES=RESIDUE NAME; C=CHAIN               
 500 IDENTIFIER; SSEQ=SEQUENCE NUMBER; I=INSERTION CODE).                 
 500                                                                      
 500 STANDARD TABLE:                                                      
 500 FORMAT: (10X,I3,1X,A3,1X,A1,I4,A1,3(1X,A4,2X),12X,F5.1)              
 500                                                                      
 500 EXPECTED VALUES PROTEIN: ENGH AND HUBER, 1999                        
 500 EXPECTED VALUES NUCLEIC ACID: CLOWNEY ET AL 1996                     
 500                                                                      
 500  M RES CSSEQI ATM1   ATM2   ATM3                                     
 500    ARG A  65   NE  -  CZ  -  NH1 ANGL. DEV. =   3.8 DEGREES          
 500    ARG A  65   NE  -  CZ  -  NH2 ANGL. DEV. =  -5.2 DEGREES          
 500    ARG A 241   NE  -  CZ  -  NH1 ANGL. DEV. =   3.4 DEGREES          
 500    ARG A 241   NE  -  CZ  -  NH2 ANGL. DEV. =  -4.0 DEGREES          
 500                                                                      
 500 REMARK: NULL                                                         
 500                                                                      
 500 GEOMETRY AND STEREOCHEMISTRY                                         
 500 SUBTOPIC: TORSION ANGLES                                             
 500                                                                      
 500 TORSION ANGLES OUTSIDE THE EXPECTED RAMACHANDRAN REGIONS:            
 500 (M=MODEL NUMBER; RES=RESIDUE NAME; C=CHAIN IDENTIFIER;               
 500 SSEQ=SEQUENCE NUMBER; I=INSERTION CODE).                             
 500                                                                      
 500 STANDARD TABLE:                                                      
 500 FORMAT:(10X,I3,1X,A3,1X,A1,I4,A1,4X,F7.2,3X,F7.2)                    
 500                                                                      
 500 EXPECTED VALUES: GJ KLEYWEGT AND TA JONES (1996). PHI/PSI-           
 500 CHOLOGY: RAMACHANDRAN REVISITED. STRUCTURE 4, 1395 - 1400            
 500                                                                      
 500  M RES CSSEQI        PSI       PHI                                   
 500    MET A  69     -146.89     55.80                                   
 500    TYR A 105       65.08     63.72                                   
 500    ASN A 175       12.45     51.08                                   
 500    LEU A 220     -124.73    -98.08                                   
 500                                                                      
 500 REMARK: NULL                                                         
 900                                                                      
 900 RELATED ENTRIES                                                      
 900 RELATED ID: 4ZJ1   RELATED DB: PDB                                   
 900 RELATED ID: 4ZJ3   RELATED DB: PDB                                   
 999                                                                      
 999 SEQUENCE                                                             
 999 THE AUTHORS USED THE SEQUENCE FROM NCBI REFERENCE SEQUENCE: WP_      
 999 000027050.1                                                          

>  <DBREF>
 4ZJ2 A    3   290  UNP    P62593   BLAT_ECOLX       1    286             

>  <SEQADV>
 4ZJ2 ILE A   84  UNP  P62593    VAL    82 SEE REMARK 999                 
 4ZJ2 ASN A  166  UNP  P62593    GLU   164 ENGINEERED MUTATION            
 4ZJ2 VAL A  184  UNP  P62593    ALA   182 SEE REMARK 999                 
 4ZJ2 ALA A  291  UNP  P62593              EXPRESSION TAG                 
 4ZJ2 ALA A  292  UNP  P62593              EXPRESSION TAG                 
 4ZJ2 ALA A  293  UNP  P62593              EXPRESSION TAG                 
 4ZJ2 LEU A  294  UNP  P62593              EXPRESSION TAG                 
 4ZJ2 GLU A  295  UNP  P62593              EXPRESSION TAG                 
 4ZJ2 HIS A  296  UNP  P62593              EXPRESSION TAG                 
 4ZJ2 HIS A  297  UNP  P62593              EXPRESSION TAG                 
 4ZJ2 HIS A  298  UNP  P62593              EXPRESSION TAG                 
 4ZJ2 HIS A  299  UNP  P62593              EXPRESSION TAG                 
 4ZJ2 HIS A  300  UNP  P62593              EXPRESSION TAG                 
 4ZJ2 HIS A  301  UNP  P62593              EXPRESSION TAG                 

>  <SEQRES>
   1 A  297  MET SER ILE GLN HIS PHE ARG VAL ALA LEU ILE PRO PHE          
   2 A  297  PHE ALA ALA PHE CYS LEU PRO VAL PHE ALA HIS PRO GLU          
   3 A  297  THR LEU VAL LYS VAL LYS ASP ALA GLU ASP GLN LEU GLY          
   4 A  297  ALA ARG VAL GLY TYR ILE GLU LEU ASP LEU ASN SER GLY          
   5 A  297  LYS ILE LEU GLU SER PHE ARG PRO GLU GLU ARG PHE PRO          
   6 A  297  MET MET 4OV THR PHE LYS VAL LEU LEU CYS GLY ALA VAL          
   7 A  297  LEU SER ARG ILE ASP ALA GLY GLN GLU GLN LEU GLY ARG          
   8 A  297  ARG ILE HIS TYR SER GLN ASN ASP LEU VAL GLU TYR SER          
   9 A  297  PRO VAL THR GLU LYS HIS LEU THR ASP GLY MET THR VAL          
  10 A  297  ARG GLU LEU CYS SER ALA ALA ILE THR MET SER ASP ASN          
  11 A  297  THR ALA ALA ASN LEU LEU LEU THR THR ILE GLY GLY PRO          
  12 A  297  LYS GLU LEU THR ALA PHE LEU HIS ASN MET GLY ASP HIS          
  13 A  297  VAL THR ARG LEU ASP ARG TRP ASN PRO GLU LEU ASN GLU          
  14 A  297  ALA ILE PRO ASN ASP GLU ARG ASP THR THR MET PRO VAL          
  15 A  297  ALA MET ALA THR THR LEU ARG LYS LEU LEU THR GLY GLU          
  16 A  297  LEU LEU THR LEU ALA SER ARG GLN GLN LEU ILE ASP TRP          
  17 A  297  MET GLU ALA ASP LYS VAL ALA GLY PRO LEU LEU ARG SER          
  18 A  297  ALA LEU PRO ALA GLY TRP PHE ILE ALA ASP LYS SER GLY          
  19 A  297  ALA GLY GLU ARG GLY SER ARG GLY ILE ILE ALA ALA LEU          
  20 A  297  GLY PRO ASP GLY LYS PRO SER ARG ILE VAL VAL ILE TYR          
  21 A  297  THR THR GLY SER GLN ALA THR MET ASP GLU ARG ASN ARG          
  22 A  297  GLN ILE ALA GLU ILE GLY ALA SER LEU ILE LYS HIS TRP          
  23 A  297  ALA ALA ALA LEU GLU HIS HIS HIS HIS HIS HIS                  

>  <HET>
 4OV  A  70      30                                                       

>  <HETNAM>
     4OV (2R)-2-[(1R)-2-[(2S)-2-AMINO-2-CARBOXYETHOXY]-1-{[(2R)-          
   2 4OV  2-AMINO-2-PHENYLACETYL]AMINO}-2-OXOETHYL]-5-METHYL-3,           
   3 4OV  6-DIHYDRO-2H-1,3-THIAZINE-4-CARBOXYLIC ACID                     

>  <FORMUL>
   1  4OV    C19 H24 N4 O7 S                                              
   2  HOH   *213(H2 O)                                                    

>  <HELIX>
   1 AA1 GLU A   28  GLY A   41  1                                  14    
   2 AA2 THR A   71  ALA A   86  1                                  16    
   3 AA3 SER A   98  LEU A  102  5                                   5    
   4 AA4 VAL A  108  HIS A  112  5                                   5    
   5 AA5 VAL A  119  MET A  129  1                                  11    
   6 AA6 ASP A  131  GLY A  143  1                                  13    
   7 AA7 GLY A  144  MET A  155  1                                  12    
   8 AA8 PRO A  167  GLU A  171  5                                   5    
   9 AA9 MET A  182  GLY A  196  1                                  15    
  10 AB1 THR A  200  ALA A  213  1                                  14    
  11 AB2 LEU A  220  LEU A  225  5                                   6    
  12 AB3 THR A  271  HIS A  289  1                                  19    

>  <SHEET>
   1 AA1 5 ILE A  56  PHE A  60  0                                        
   2 AA1 5 ARG A  43  ASP A  50 -1  N  TYR A  46   O  PHE A  60           
   3 AA1 5 ARG A 259  THR A 266 -1  O  TYR A 264   N  GLY A  45           
   4 AA1 5 ARG A 244  GLY A 251 -1  N  ILE A 246   O  ILE A 263           
   5 AA1 5 PHE A 230  ALA A 237 -1  N  PHE A 230   O  GLY A 251           
   1 AA2 2 PHE A  66  PRO A  67  0                                        
   2 AA2 2 THR A 180  THR A 181 -1  O  THR A 181   N  PHE A  66           
   1 AA3 2 ARG A  94  ILE A  95  0                                        
   2 AA3 2 MET A 117  THR A 118 -1  O  MET A 117   N  ILE A  95           

>  <SSBOND>
   1 CYS A   77    CYS A  123                          1555   1555  2.07  

>  <LINK>
       C   MET A  69                 N   4OV A  70     1555   1555  1.34  
       C   4OV A  70                 N   THR A  71     1555   1555  1.32  

>  <CISPEP>
   1 ASN A  166    PRO A  167          0        14.77                     

>  <ORIGX1>
      1.000000  0.000000  0.000000        0.00000                         

>  <ORIGX2>
      0.000000  1.000000  0.000000        0.00000                         

>  <ORIGX3>
      0.000000  0.000000  1.000000        0.00000                         

>  <SCALE1>
      0.021523  0.000000  0.000000        0.00000                         

>  <SCALE2>
      0.000000  0.021257  0.000000        0.00000                         

>  <SCALE3>
      0.000000  0.000000  0.007838        0.00000                         

>  <ANISOU>
  373  C14 4OV A  70     3981   4268   3846    162     52   -171       C  
  374  C16 4OV A  70     2226   2415   2025     30     99   -177       C  
  375  C13 4OV A  70     5521   5930   5467    183     50   -270       C  
  376  C8  4OV A  70     2528   2845   2408    -14    142   -294       C  
  377  C3  4OV A  70     3787   4319   3827     42    147   -431       C  
  378  C2  4OV A  70     3874   4443   3944     84    120   -442       C  
  379  S1  4OV A  70     2659   3030   2578    104     79   -261       S  
  380  C6  4OV A  70     3924   4409   3929     35    136   -390       C  
  381  C4  4OV A  70     3831   4295   3815     -1    165   -397       C  
  382  C7  4OV A  70     2612   2977   2522    -42    170   -344       C  
  383  C11 4OV A  70     4791   5167   4714    147     65   -250       C  
  384  O2  4OV A  70     4159   4456   4033    175     48   -182       O  
  385  O3  4OV A  70     4422   4671   4262    166     46   -135       O  
  386  C12 4OV A  70     3364   3682   3249    140     63   -204       C  
  387  N3  4OV A  70     2648   2929   2509    112     70   -188       N  
  388  C10 4OV A  70     4372   4779   4317    117     81   -287       C  
  389  C9  4OV A  70     2494   2783   2360     84     82   -211       C  
  390  C15 4OV A  70     2249   2497   2087     34    104   -214       C  
  391  O4  4OV A  70     2265   2453   2061     26    106   -179       O  
  392  OG  4OV A  70     2286   2439   2067     45     81   -144       O  
  393  CB  4OV A  70     2116   2237   1881     58     70   -113       C  
  394  CA  4OV A  70     2046   2100   1765     27     72    -99       C  
  395  C   4OV A  70     2295   2318   2006     45     55    -68       C  
  396  O   4OV A  70     2285   2306   2005     64     40    -55       O  
  397  N   4OV A  70     2415   2465   2120     -2     92   -117       N  
  398  N2  4OV A  70     2323   2614   2186     13    125   -257       N  
  399  O1  4OV A  70     2369   2676   2245    -19    138   -292       O  
  400  N1  4OV A  70     2553   2924   2465    -87    194   -375       N  
  401  C5  4OV A  70     3225   3663   3192     -3    158   -375       C  
  402  C1  4OV A  70     3952   4501   4005     79    117   -422       C  
 1697  N   SER A 235     1862   1981   1645    162     39    -38       N  
 1698  CA  SER A 235     2026   2165   1819    156     44    -65       C  
 1699  C   SER A 235     1967   2111   1759    125     56    -85       C  
 1700  O   SER A 235     2119   2251   1902    115     55    -79       O  
 1701  CB  SER A 235     2087   2264   1896    186     36    -84       C  
 1702  OG  SER A 235     2297   2498   2111    197     32    -89       O  

>  <MASTER>
      344    0    1   12    9    0    0    6 2275    1   34   23          

$$$$
