start_structures/Ligand_Substrate/Ligand_Complex_Stripped/5VR_5FA7.pdb
 OpenBabel08222315203D

 45 45  0  0  1  0  0  0  0  0999 V2000
   22.8310   -6.4390   18.3250 N   0  0  0  0  0  0  0  0  0  0  0  0
   22.1470   -6.3060   19.6080 C   0  0  2  0  0  0  0  0  0  0  0  0
   20.7270   -5.7950   19.5610 C   0  0  0  0  0  0  0  0  0  0  0  0
   20.0800   -5.8750   20.5870 O   0  0  0  0  0  0  0  0  0  0  0  0
   22.9520   -5.4670   20.6010 C   0  0  0  0  0  0  0  0  0  0  0  0
   24.2100   -6.0320   20.9490 O   0  0  0  0  0  0  0  0  0  0  0  0
   23.6090   -5.7960   18.2240 H   0  0  0  0  0  0  0  0  0  0  0  0
   22.0590   -7.3080   20.0240 H   0  0  0  0  0  0  0  0  0  0  0  0
   23.0780   -4.4680   20.1910 H   0  0  0  0  0  0  0  0  0  0  0  0
   22.3790   -5.3960   21.5230 H   0  0  0  0  0  0  0  0  0  0  0  0
   26.0250   -1.2270   20.3510 O   0  0  0  0  0  0  0  0  0  0  0  0
   25.4520   -1.1480   21.5160 S   0  0  0  0  0  0  0  0  0  0  0  0
   24.1130   -1.5560   21.5210 O   0  0  0  0  0  0  0  0  0  0  0  0
   25.7040    0.0450   22.1630 O   0  0  0  0  0  0  0  0  0  0  0  0
   26.1690   -2.3580   22.5230 O   0  0  0  0  0  0  0  0  0  0  0  0
   26.0380   -3.5240   22.2520 N   0  0  0  0  0  0  0  0  0  0  0  0
   27.0660   -4.4510   22.6510 C   0  0  2  0  0  0  0  0  0  0  0  0
   28.3740   -4.1720   21.9450 C   0  0  0  0  0  0  0  0  0  0  0  0
   28.2330   -4.2840   20.4480 C   0  0  0  0  0  0  0  0  0  0  0  0
   26.7000   -5.8760   22.2820 C   0  0  0  0  0  0  0  0  0  0  0  0
   26.5180   -5.8590   20.8410 N   0  0  0  0  0  0  0  0  0  0  0  0
   25.2110   -5.7900   20.1780 C   0  0  0  0  0  0  0  0  0  0  0  0
   25.2380   -5.3100   19.1080 O   0  0  0  0  0  0  0  0  0  0  0  0
   27.7280   -5.6050   20.0740 C   0  0  2  0  0  0  0  0  0  0  0  0
   28.8520   -6.6260   20.2250 C   0  0  0  0  0  0  0  0  0  0  0  0
   28.8090   -7.5480   20.9920 O   0  0  0  0  0  0  0  0  0  0  0  0
   29.8740   -6.3870   19.4130 N   0  0  0  0  0  0  0  0  0  0  0  0
   31.0370   -7.1330   19.3950 N   0  0  0  0  0  0  0  0  0  0  0  0
   31.1070   -8.3350   18.8300 C   0  0  0  0  0  0  0  0  0  0  0  0
   30.1700   -8.8560   18.3130 O   0  0  0  0  0  0  0  0  0  0  0  0
   32.4480   -9.0060   18.9030 C   0  0  0  0  0  0  0  0  0  0  0  0
   25.1110   -3.8080   22.5290 H   0  0  0  0  0  0  0  0  0  0  0  0
   27.2270   -4.3440   23.7190 H   0  0  0  0  0  0  0  0  0  0  0  0
   28.8000   -3.2150   22.2350 H   0  0  0  0  0  0  0  0  0  0  0  0
   29.1140   -4.9010   22.2630 H   0  0  0  0  0  0  0  0  0  0  0  0
   29.1580   -4.0480   19.9320 H   0  0  0  0  0  0  0  0  0  0  0  0
   27.5390   -3.5270   20.0980 H   0  0  0  0  0  0  0  0  0  0  0  0
   27.4800   -6.5710   22.5700 H   0  0  0  0  0  0  0  0  0  0  0  0
   25.8060   -6.2390   22.7770 H   0  0  0  0  0  0  0  0  0  0  0  0
   27.5040   -5.5600   19.0130 H   0  0  0  0  0  0  0  0  0  0  0  0
   29.8700   -5.6350   18.7370 H   0  0  0  0  0  0  0  0  0  0  0  0
   31.8190   -6.6700   19.8370 H   0  0  0  0  0  0  0  0  0  0  0  0
   32.7750   -9.0870   19.9380 H   0  0  0  0  0  0  0  0  0  0  0  0
   32.4840   -9.9980   18.4600 H   0  0  0  0  0  0  0  0  0  0  0  0
   33.1960   -8.4140   18.3850 H   0  0  0  0  0  0  0  0  0  0  0  0
  1  2  1  0  0  0  0
  2  8  1  1  0  0  0
  2  5  1  0  0  0  0
  3  2  1  0  0  0  0
  3  4  2  0  0  0  0
  5  6  1  0  0  0  0
  5 10  1  0  0  0  0
  6 22  1  0  0  0  0
  7  1  1  0  0  0  0
  9  5  1  0  0  0  0
 11 12  1  0  0  0  0
 12 13  1  0  0  0  0
 12 14  1  0  0  0  0
 12 15  1  0  0  0  0
 15 16  1  0  0  0  0
 16 17  1  0  0  0  0
 16 32  1  0  0  0  0
 17 18  1  0  0  0  0
 17 20  1  0  0  0  0
 17 33  1  1  0  0  0
 18 19  1  0  0  0  0
 18 34  1  0  0  0  0
 18 35  1  0  0  0  0
 19 24  1  0  0  0  0
 19 36  1  0  0  0  0
 19 37  1  0  0  0  0
 20 21  1  0  0  0  0
 20 38  1  0  0  0  0
 20 39  1  0  0  0  0
 21 22  1  0  0  0  0
 21 24  1  0  0  0  0
 22 23  2  0  0  0  0
 24 25  1  0  0  0  0
 24 40  1  6  0  0  0
 25 26  2  0  0  0  0
 25 27  1  0  0  0  0
 27 28  1  0  0  0  0
 27 41  1  0  0  0  0
 28 29  1  0  0  0  0
 28 42  1  0  0  0  0
 29 30  2  0  0  0  0
 29 31  1  0  0  0  0
 31 43  1  0  0  0  0
 31 44  1  0  0  0  0
 31 45  1  0  0  0  0
M  END
>  <HEADER>
    HYDROLASE/HYDROLASE INHIBITOR           11-DEC-15   5FA7              

>  <TITLE>
    CTX-M-15 IN COMPLEX WITH FPI-1523                                     

>  <COMPND>
    MOL_ID: 1;                                                            
   2 MOLECULE: BETA-LACTAMASE;                                            
   3 CHAIN: A, B;                                                         
   4 FRAGMENT: RESIDUES 26-291;                                           
   5 EC: 3.5.2.6;                                                         
   6 ENGINEERED: YES                                                      

>  <SOURCE>
    MOL_ID: 1;                                                            
   2 ORGANISM_SCIENTIFIC: ESCHERICHIA COLI;                               
   3 ORGANISM_TAXID: 562;                                                 
   4 GENE: BLAUOE-1, BLA, BLA CTX-M-15, BLA_1, BLA_2, BLA_3, BLACTX-M-15, 
   5 BLACTX-M15, CTX-M-15, ECONIH1_02760, ECONIH1_27135, ERS085368_04262, 
   6 ERS085370_01802, ERS085377_05268, ERS139214_01914, ERS139238_04648,  
   7 ERS139238_04652, ERS150880_04508, HUS2011_PI0012, PCTXM15_EC8_00003, 
   8 SK84_05077, SK86_03319;                                              
   9 EXPRESSION_SYSTEM: ESCHERICHIA COLI;                                 
  10 EXPRESSION_SYSTEM_TAXID: 562                                         

>  <KEYWDS>
    HYDROLASE-HYDROLASE INHIBITOR COMPLEX                                 

>  <EXPDTA>
    X-RAY DIFFRACTION                                                     

>  <AUTHOR>
    A.M.KING,D.T.KING,S.FRENCH,E.BROUILLETTE,A.ASLI,A.N.ALEXANDER,        
   2 M.VUCKOVIC,S.N.MAITI,T.R.PARR,E.D.BROWN,F.MALOUIN,N.C.J.STRYNADKA,   
   3 G.D.WRIGHT                                                           

>  <REVDAT>
   3   20-NOV-19 5FA7    1       REMARK                                   
   2   27-APR-16 5FA7    1       JRNL                                     
   1   20-JAN-16 5FA7    0                                                

>  <JRNL>
      AUTH   A.M.KING,D.T.KING,S.FRENCH,E.BROUILLETTE,A.ASLI,             
      AUTH 2 J.A.ALEXANDER,M.VUCKOVIC,S.N.MAITI,T.R.PARR,E.D.BROWN,       
      AUTH 3 F.MALOUIN,N.C.STRYNADKA,G.D.WRIGHT                           
      TITL   STRUCTURAL AND KINETIC CHARACTERIZATION OF                   
      TITL 2 DIAZABICYCLOOCTANES AS DUAL INHIBITORS OF BOTH               
      TITL 3 SERINE-BETA-LACTAMASES AND PENICILLIN-BINDING PROTEINS.      
      REF    ACS CHEM.BIOL.                V.  11   864 2016              
      REFN                   ESSN 1554-8937                               
      PMID   26731698                                                     
      DOI    10.1021/ACSCHEMBIO.5B00944                                   

>  <REMARK>
   2                                                                      
   2 RESOLUTION.    1.67 ANGSTROMS.                                       
   3                                                                      
   3 REFINEMENT.                                                          
   3   PROGRAM     : BUSTER 2.10.0                                        
   3   AUTHORS     : BRICOGNE,BLANC,BRANDL,FLENSBURG,KELLER,              
   3               : PACIOREK,ROVERSI,SHARFF,SMART,VONRHEIN,              
   3               : WOMACK,MATTHEWS,TEN EYCK,TRONRUD                     
   3                                                                      
   3  DATA USED IN REFINEMENT.                                            
   3   RESOLUTION RANGE HIGH (ANGSTROMS) : 1.67                           
   3   RESOLUTION RANGE LOW  (ANGSTROMS) : 33.40                          
   3   DATA CUTOFF            (SIGMA(F)) : 0.000                          
   3   COMPLETENESS FOR RANGE        (%) : 98.4                           
   3   NUMBER OF REFLECTIONS             : 59810                          
   3                                                                      
   3  FIT TO DATA USED IN REFINEMENT.                                     
   3   CROSS-VALIDATION METHOD           : THROUGHOUT                     
   3   FREE R VALUE TEST SET SELECTION   : RANDOM                         
   3   R VALUE     (WORKING + TEST SET)  : 0.177                          
   3   R VALUE            (WORKING SET)  : 0.175                          
   3   FREE R VALUE                      : 0.207                          
   3   FREE R VALUE TEST SET SIZE   (%)  : 5.130                          
   3   FREE R VALUE TEST SET COUNT       : 3068                           
   3   ESTIMATED ERROR OF FREE R VALUE   : NULL                           
   3                                                                      
   3  FIT IN THE HIGHEST RESOLUTION BIN.                                  
   3   TOTAL NUMBER OF BINS USED               : 20                       
   3   BIN RESOLUTION RANGE HIGH   (ANGSTROMS) : 1.67                     
   3   BIN RESOLUTION RANGE LOW    (ANGSTROMS) : 1.71                     
   3   BIN COMPLETENESS (WORKING+TEST)     (%) : 98.39                    
   3   REFLECTIONS IN BIN (WORKING + TEST SET) : 4402                     
   3   BIN R VALUE        (WORKING + TEST SET) : 0.2102                   
   3   REFLECTIONS IN BIN        (WORKING SET) : 4184                     
   3   BIN R VALUE               (WORKING SET) : 0.2081                   
   3   BIN FREE R VALUE                        : 0.2506                   
   3   BIN FREE R VALUE TEST SET SIZE      (%) : 4.95                     
   3   BIN FREE R VALUE TEST SET COUNT         : 218                      
   3   ESTIMATED ERROR OF BIN FREE R VALUE     : NULL                     
   3                                                                      
   3  NUMBER OF NON-HYDROGEN ATOMS USED IN REFINEMENT.                    
   3   PROTEIN ATOMS            : 3890                                    
   3   NUCLEIC ACID ATOMS       : 0                                       
   3   HETEROGEN ATOMS          : 42                                      
   3   SOLVENT ATOMS            : 520                                     
   3                                                                      
   3  B VALUES.                                                           
   3   FROM WILSON PLOT           (A**2) : 16.67                          
   3   MEAN B VALUE      (OVERALL, A**2) : 16.01                          
   3   OVERALL ANISOTROPIC B VALUE.                                       
   3    B11 (A**2) : -1.79670                                             
   3    B22 (A**2) : -0.67460                                             
   3    B33 (A**2) : 2.47130                                              
   3    B12 (A**2) : 0.00000                                              
   3    B13 (A**2) : -1.49020                                             
   3    B23 (A**2) : 0.00000                                              
   3                                                                      
   3  ESTIMATED COORDINATE ERROR.                                         
   3   ESD FROM LUZZATI PLOT                    (A) : 0.178               
   3   DPI (BLOW EQ-10) BASED ON R VALUE        (A) : 0.096               
   3   DPI (BLOW EQ-9) BASED ON FREE R VALUE    (A) : 0.095               
   3   DPI (CRUICKSHANK) BASED ON R VALUE       (A) : 0.121               
   3   DPI (CRUICKSHANK) BASED ON FREE R VALUE  (A) : 0.095               
   3                                                                      
   3   REFERENCES: BLOW, D. (2002) ACTA CRYST D58, 792-797                
   3               CRUICKSHANK, D.W.J. (1999) ACTA CRYST D55, 583-601     
   3                                                                      
   3 CORRELATION COEFFICIENTS.                                            
   3   CORRELATION COEFFICIENT FO-FC      : 0.939                         
   3   CORRELATION COEFFICIENT FO-FC FREE : 0.920                         
   3                                                                      
   3   NUMBER OF GEOMETRIC FUNCTION TERMS DEFINED : 15                    
   3   TERM                          COUNT    WEIGHT   FUNCTION.          
   3    BOND LENGTHS              : 7976   ; 2.000  ; HARMONIC            
   3    BOND ANGLES               : 14448  ; 2.000  ; HARMONIC            
   3    TORSION ANGLES            : 1785   ; 2.000  ; SINUSOIDAL          
   3    TRIGONAL CARBON PLANES    : 104    ; 2.000  ; HARMONIC            
   3    GENERAL PLANES            : 1181   ; 5.000  ; HARMONIC            
   3    ISOTROPIC THERMAL FACTORS : 7976   ; 20.000 ; HARMONIC            
   3    BAD NON-BONDED CONTACTS   : NULL   ; NULL   ; NULL                
   3    IMPROPER TORSIONS         : NULL   ; NULL   ; NULL                
   3    PSEUDOROTATION ANGLES     : NULL   ; NULL   ; NULL                
   3    CHIRAL IMPROPER TORSION   : 553    ; 5.000  ; SEMIHARMONIC        
   3    SUM OF OCCUPANCIES        : NULL   ; NULL   ; NULL                
   3    UTILITY DISTANCES         : NULL   ; NULL   ; NULL                
   3    UTILITY ANGLES            : NULL   ; NULL   ; NULL                
   3    UTILITY TORSION           : NULL   ; NULL   ; NULL                
   3    IDEAL-DIST CONTACT TERM   : 9204   ; 4.000  ; SEMIHARMONIC        
   3                                                                      
   3   RMS DEVIATIONS FROM IDEAL VALUES.                                  
   3    BOND LENGTHS                       (A) : 0.010                    
   3    BOND ANGLES                  (DEGREES) : 1.12                     
   3    PEPTIDE OMEGA TORSION ANGLES (DEGREES) : 3.97                     
   3    OTHER TORSION ANGLES         (DEGREES) : 14.75                    
   3                                                                      
   3  TLS DETAILS                                                         
   3   NUMBER OF TLS GROUPS  : 2                                          
   3                                                                      
   3   TLS GROUP : 1                                                      
   3    SELECTION: { A|* }                                                
   3    ORIGIN FOR THE GROUP (A):   16.6607   -3.4357   18.2839           
   3    T TENSOR                                                          
   3     T11:   -0.0703 T22:   -0.0012                                    
   3     T33:    0.0042 T12:    0.0017                                    
   3     T13:   -0.0365 T23:   -0.0001                                    
   3    L TENSOR                                                          
   3     L11:    0.2923 L22:    0.2412                                    
   3     L33:    0.6122 L12:   -0.0719                                    
   3     L13:    0.0318 L23:    0.0178                                    
   3    S TENSOR                                                          
   3     S11:   -0.0249 S12:   -0.0076 S13:   -0.0060                     
   3     S21:    0.0043 S22:    0.0003 S23:   -0.0209                     
   3     S31:    0.0140 S32:    0.0215 S33:    0.0246                     
   3                                                                      
   3   TLS GROUP : 2                                                      
   3    SELECTION: { B|* }                                                
   3    ORIGIN FOR THE GROUP (A):   15.3338   -8.9331  -18.4739           
   3    T TENSOR                                                          
   3     T11:   -0.0731 T22:   -0.0125                                    
   3     T33:    0.0071 T12:    0.0083                                    
   3     T13:   -0.0406 T23:    0.0058                                    
   3    L TENSOR                                                          
   3     L11:    0.3954 L22:    0.2389                                    
   3     L33:    0.6243 L12:    0.0794                                    
   3     L13:   -0.0346 L23:   -0.0072                                    
   3    S TENSOR                                                          
   3     S11:    0.0002 S12:    0.0362 S13:   -0.0014                     
   3     S21:   -0.0097 S22:    0.0263 S23:   -0.0056                     
   3     S31:   -0.0349 S32:   -0.0133 S33:   -0.0265                     
   3                                                                      
   3  OTHER REFINEMENT REMARKS: NULL                                      
   4                                                                      
   4 5FA7 COMPLIES WITH FORMAT V. 3.30, 13-JUL-11                         
 100                                                                      
 100 THIS ENTRY HAS BEEN PROCESSED BY RCSB ON 11-DEC-15.                  
 100 THE DEPOSITION ID IS D_1000216267.                                   
 200                                                                      
 200 EXPERIMENTAL DETAILS                                                 
 200  EXPERIMENT TYPE                : X-RAY DIFFRACTION                  
 200  DATE OF DATA COLLECTION        : 15-JUL-15                          
 200  TEMPERATURE           (KELVIN) : 100                                
 200  PH                             : 6.5                                
 200  NUMBER OF CRYSTALS USED        : NULL                               
 200                                                                      
 200  SYNCHROTRON              (Y/N) : Y                                  
 200  RADIATION SOURCE               : CLSI                               
 200  BEAMLINE                       : 08ID-1                             
 200  X-RAY GENERATOR MODEL          : NULL                               
 200  MONOCHROMATIC OR LAUE    (M/L) : M                                  
 200  WAVELENGTH OR RANGE        (A) : 1.00                               
 200  MONOCHROMATOR                  : NULL                               
 200  OPTICS                         : NULL                               
 200                                                                      
 200  DETECTOR TYPE                  : CCD                                
 200  DETECTOR MANUFACTURER          : RAYONIX MX-300                     
 200  INTENSITY-INTEGRATION SOFTWARE : XIA2                               
 200  DATA SCALING SOFTWARE          : AIMLESS                            
 200                                                                      
 200  NUMBER OF UNIQUE REFLECTIONS   : 59836                              
 200  RESOLUTION RANGE HIGH      (A) : 1.670                              
 200  RESOLUTION RANGE LOW       (A) : 70.100                             
 200  REJECTION CRITERIA  (SIGMA(I)) : NULL                               
 200                                                                      
 200 OVERALL.                                                             
 200  COMPLETENESS FOR RANGE     (%) : 98.4                               
 200  DATA REDUNDANCY                : 2.900                              
 200  R MERGE                    (I) : NULL                               
 200  R SYM                      (I) : NULL                               
 200  <I/SIGMA(I)> FOR THE DATA SET  : 12.2000                            
 200                                                                      
 200 IN THE HIGHEST RESOLUTION SHELL.                                     
 200  HIGHEST RESOLUTION SHELL, RANGE HIGH (A) : NULL                     
 200  HIGHEST RESOLUTION SHELL, RANGE LOW  (A) : NULL                     
 200  COMPLETENESS FOR SHELL     (%) : NULL                               
 200  DATA REDUNDANCY IN SHELL       : NULL                               
 200  R MERGE FOR SHELL          (I) : NULL                               
 200  R SYM FOR SHELL            (I) : NULL                               
 200  <I/SIGMA(I)> FOR SHELL         : NULL                               
 200                                                                      
 200 DIFFRACTION PROTOCOL: SINGLE WAVELENGTH                              
 200 METHOD USED TO DETERMINE THE STRUCTURE: NULL                         
 200 SOFTWARE USED: PHASER                                                
 200 STARTING MODEL: NULL                                                 
 200                                                                      
 200 REMARK: NULL                                                         
 280                                                                      
 280 CRYSTAL                                                              
 280 SOLVENT CONTENT, VS   (%): 47.10                                     
 280 MATTHEWS COEFFICIENT, VM (ANGSTROMS**3/DA): 2.33                     
 280                                                                      
 280 CRYSTALLIZATION CONDITIONS: 0.2M AMMONIUM SULFATE, 0.1M MES PH6.5,   
 280  30% PEG5K MONOMETHYL ETHER, VAPOR DIFFUSION, SITTING DROP,          
 280  TEMPERATURE 298K                                                    
 290                                                                      
 290 CRYSTALLOGRAPHIC SYMMETRY                                            
 290 SYMMETRY OPERATORS FOR SPACE GROUP: P 1 21 1                         
 290                                                                      
 290      SYMOP   SYMMETRY                                                
 290     NNNMMM   OPERATOR                                                
 290       1555   X,Y,Z                                                   
 290       2555   -X,Y+1/2,-Z                                             
 290                                                                      
 290     WHERE NNN -> OPERATOR NUMBER                                     
 290           MMM -> TRANSLATION VECTOR                                  
 290                                                                      
 290 CRYSTALLOGRAPHIC SYMMETRY TRANSFORMATIONS                            
 290 THE FOLLOWING TRANSFORMATIONS OPERATE ON THE ATOM/HETATM             
 290 RECORDS IN THIS ENTRY TO PRODUCE CRYSTALLOGRAPHICALLY                
 290 RELATED MOLECULES.                                                   
 290   SMTRY1   1  1.000000  0.000000  0.000000        0.00000            
 290   SMTRY2   1  0.000000  1.000000  0.000000        0.00000            
 290   SMTRY3   1  0.000000  0.000000  1.000000        0.00000            
 290   SMTRY1   2 -1.000000  0.000000  0.000000        0.00000            
 290   SMTRY2   2  0.000000  1.000000  0.000000       30.13500            
 290   SMTRY3   2  0.000000  0.000000 -1.000000        0.00000            
 290                                                                      
 290 REMARK: NULL                                                         
 300                                                                      
 300 BIOMOLECULE: 1, 2                                                    
 300 SEE REMARK 350 FOR THE AUTHOR PROVIDED AND/OR PROGRAM                
 300 GENERATED ASSEMBLY INFORMATION FOR THE STRUCTURE IN                  
 300 THIS ENTRY. THE REMARK MAY ALSO PROVIDE INFORMATION ON               
 300 BURIED SURFACE AREA.                                                 
 350                                                                      
 350 COORDINATES FOR A COMPLETE MULTIMER REPRESENTING THE KNOWN           
 350 BIOLOGICALLY SIGNIFICANT OLIGOMERIZATION STATE OF THE                
 350 MOLECULE CAN BE GENERATED BY APPLYING BIOMT TRANSFORMATIONS          
 350 GIVEN BELOW.  BOTH NON-CRYSTALLOGRAPHIC AND                          
 350 CRYSTALLOGRAPHIC OPERATIONS ARE GIVEN.                               
 350                                                                      
 350 BIOMOLECULE: 1                                                       
 350 AUTHOR DETERMINED BIOLOGICAL UNIT: MONOMERIC                         
 350 SOFTWARE DETERMINED QUATERNARY STRUCTURE: MONOMERIC                  
 350 SOFTWARE USED: PISA                                                  
 350 APPLY THE FOLLOWING TO CHAINS: A                                     
 350   BIOMT1   1  1.000000  0.000000  0.000000        0.00000            
 350   BIOMT2   1  0.000000  1.000000  0.000000        0.00000            
 350   BIOMT3   1  0.000000  0.000000  1.000000        0.00000            
 350                                                                      
 350 BIOMOLECULE: 2                                                       
 350 AUTHOR DETERMINED BIOLOGICAL UNIT: MONOMERIC                         
 350 SOFTWARE DETERMINED QUATERNARY STRUCTURE: MONOMERIC                  
 350 SOFTWARE USED: PISA                                                  
 350 APPLY THE FOLLOWING TO CHAINS: B                                     
 350   BIOMT1   1  1.000000  0.000000  0.000000        0.00000            
 350   BIOMT2   1  0.000000  1.000000  0.000000        0.00000            
 350   BIOMT3   1  0.000000  0.000000  1.000000        0.00000            
 465                                                                      
 465 MISSING RESIDUES                                                     
 465 THE FOLLOWING RESIDUES WERE NOT LOCATED IN THE                       
 465 EXPERIMENT. (M=MODEL NUMBER; RES=RESIDUE NAME; C=CHAIN               
 465 IDENTIFIER; SSSEQ=SEQUENCE NUMBER; I=INSERTION CODE.)                
 465                                                                      
 465   M RES C SSSEQI                                                     
 465     LEU A    23                                                      
 465     TYR A    24                                                      
 465     ALA A    25                                                      
 465     GLN A    26                                                      
 465     GLY A   287                                                      
 465     LEU A   288                                                      
 465     LEU B    23                                                      
 465     TYR B    24                                                      
 465     ALA B    25                                                      
 465     GLN B    26                                                      
 465     THR B    27                                                      
 465     ALA B    28                                                      
 465     GLY B   287                                                      
 465     LEU B   288                                                      
 500                                                                      
 500 GEOMETRY AND STEREOCHEMISTRY                                         
 500 SUBTOPIC: CLOSE CONTACTS IN SAME ASYMMETRIC UNIT                     
 500                                                                      
 500 THE FOLLOWING ATOMS ARE IN CLOSE CONTACT.                            
 500                                                                      
 500  ATM1  RES C  SSEQI   ATM2  RES C  SSEQI           DISTANCE          
 500   HH   TYR B   262     O    HOH B   401              1.50            
 500   H    ASP B   253     O    HOH B   402              1.51            
 500   HG   SER B   118     O    HOH B   405              1.56            
 500   OG   SER B    70     OAN  5VR B   301              2.15            
 500                                                                      
 500 REMARK: NULL                                                         
 500                                                                      
 500 GEOMETRY AND STEREOCHEMISTRY                                         
 500 SUBTOPIC: CLOSE CONTACTS                                             
 500                                                                      
 500 THE FOLLOWING ATOMS THAT ARE RELATED BY CRYSTALLOGRAPHIC             
 500 SYMMETRY ARE IN CLOSE CONTACT.  AN ATOM LOCATED WITHIN 0.15          
 500 ANGSTROMS OF A SYMMETRY RELATED ATOM IS ASSUMED TO BE ON A           
 500 SPECIAL POSITION AND IS, THEREFORE, LISTED IN REMARK 375             
 500 INSTEAD OF REMARK 500.  ATOMS WITH NON-BLANK ALTERNATE               
 500 LOCATION INDICATORS ARE NOT INCLUDED IN THE CALCULATIONS.            
 500                                                                      
 500 DISTANCE CUTOFF:                                                     
 500 2.2 ANGSTROMS FOR CONTACTS NOT INVOLVING HYDROGEN ATOMS              
 500 1.6 ANGSTROMS FOR CONTACTS INVOLVING HYDROGEN ATOMS                  
 500                                                                      
 500  ATM1  RES C  SSEQI   ATM2  RES C  SSEQI  SSYMOP   DISTANCE          
 500   O    ALA A    53     HE   ARG B   191     2555     1.44            
 500                                                                      
 500 REMARK: NULL                                                         
 500                                                                      
 500 GEOMETRY AND STEREOCHEMISTRY                                         
 500 SUBTOPIC: COVALENT BOND ANGLES                                       
 500                                                                      
 500 THE STEREOCHEMICAL PARAMETERS OF THE FOLLOWING RESIDUES              
 500 HAVE VALUES WHICH DEVIATE FROM EXPECTED VALUES BY MORE               
 500 THAN 6*RMSD (M=MODEL NUMBER; RES=RESIDUE NAME; C=CHAIN               
 500 IDENTIFIER; SSEQ=SEQUENCE NUMBER; I=INSERTION CODE).                 
 500                                                                      
 500 STANDARD TABLE:                                                      
 500 FORMAT: (10X,I3,1X,A3,1X,A1,I4,A1,3(1X,A4,2X),12X,F5.1)              
 500                                                                      
 500 EXPECTED VALUES PROTEIN: ENGH AND HUBER, 1999                        
 500 EXPECTED VALUES NUCLEIC ACID: CLOWNEY ET AL 1996                     
 500                                                                      
 500  M RES CSSEQI ATM1   ATM2   ATM3                                     
 500    ARG B 191   O   -  C   -  N   ANGL. DEV. =   9.6 DEGREES          
 500                                                                      
 500 REMARK: NULL                                                         
 500                                                                      
 500 GEOMETRY AND STEREOCHEMISTRY                                         
 500 SUBTOPIC: TORSION ANGLES                                             
 500                                                                      
 500 TORSION ANGLES OUTSIDE THE EXPECTED RAMACHANDRAN REGIONS:            
 500 (M=MODEL NUMBER; RES=RESIDUE NAME; C=CHAIN IDENTIFIER;               
 500 SSEQ=SEQUENCE NUMBER; I=INSERTION CODE).                             
 500                                                                      
 500 STANDARD TABLE:                                                      
 500 FORMAT:(10X,I3,1X,A3,1X,A1,I4,A1,4X,F7.2,3X,F7.2)                    
 500                                                                      
 500 EXPECTED VALUES: GJ KLEYWEGT AND TA JONES (1996). PHI/PSI-           
 500 CHOLOGY: RAMACHANDRAN REVISITED. STRUCTURE 4, 1395 - 1400            
 500                                                                      
 500  M RES CSSEQI        PSI       PHI                                   
 500    CYS A  69     -142.46     55.27                                   
 500    VAL A 103     -144.39   -121.68                                   
 500    SER A 220     -125.14   -107.69                                   
 500    CYS B  69     -140.55     51.85                                   
 500    VAL B 103     -142.30   -122.98                                   
 500    SER B 220     -126.74   -106.55                                   
 500                                                                      
 500 REMARK: NULL                                                         
 800                                                                      
 800 SITE                                                                 
 800 SITE_IDENTIFIER: AC1                                                 
 800 EVIDENCE_CODE: SOFTWARE                                              
 800 SITE_DESCRIPTION: binding site for residue 5VR A 301                 
 800                                                                      
 800 SITE_IDENTIFIER: AC2                                                 
 800 EVIDENCE_CODE: SOFTWARE                                              
 800 SITE_DESCRIPTION: binding site for Di-peptide 5VR B 301 and SER B    
 800  70                                                                  
 900                                                                      
 900 RELATED ENTRIES                                                      
 900 RELATED ID: 5FAO   RELATED DB: PDB                                   
 900 RELATED ID: 5FAP   RELATED DB: PDB                                   
 900 RELATED ID: 5FAQ   RELATED DB: PDB                                   
 900 RELATED ID: 5FAS   RELATED DB: PDB                                   
 900 RELATED ID: 5FAT   RELATED DB: PDB                                   

>  <DBREF>
 5FA7 A   23   288  UNP    Q9EXV5   Q9EXV5_ECOLX    26    291             
 5FA7 B   23   288  UNP    Q9EXV5   Q9EXV5_ECOLX    26    291             

>  <SEQRES>
   1 A  266  LEU TYR ALA GLN THR ALA ASP VAL GLN GLN LYS LEU ALA          
   2 A  266  GLU LEU GLU ARG GLN SER GLY GLY ARG LEU GLY VAL ALA          
   3 A  266  LEU ILE ASN THR ALA ASP ASN SER GLN ILE LEU TYR ARG          
   4 A  266  ALA ASP GLU ARG PHE ALA MET CYS SER THR SER LYS VAL          
   5 A  266  MET ALA ALA ALA ALA VAL LEU LYS LYS SER GLU SER GLU          
   6 A  266  PRO ASN LEU LEU ASN GLN ARG VAL GLU ILE LYS LYS SER          
   7 A  266  ASP LEU VAL ASN TYR ASN PRO ILE ALA GLU LYS HIS VAL          
   8 A  266  ASN GLY THR MET SER LEU ALA GLU LEU SER ALA ALA ALA          
   9 A  266  LEU GLN TYR SER ASP ASN VAL ALA MET ASN LYS LEU ILE          
  10 A  266  ALA HIS VAL GLY GLY PRO ALA SER VAL THR ALA PHE ALA          
  11 A  266  ARG GLN LEU GLY ASP GLU THR PHE ARG LEU ASP ARG THR          
  12 A  266  GLU PRO THR LEU ASN THR ALA ILE PRO GLY ASP PRO ARG          
  13 A  266  ASP THR THR SER PRO ARG ALA MET ALA GLN THR LEU ARG          
  14 A  266  ASN LEU THR LEU GLY LYS ALA LEU GLY ASP SER GLN ARG          
  15 A  266  ALA GLN LEU VAL THR TRP MET LYS GLY ASN THR THR GLY          
  16 A  266  ALA ALA SER ILE GLN ALA GLY LEU PRO ALA SER TRP VAL          
  17 A  266  VAL GLY ASP LYS THR GLY SER GLY GLY TYR GLY THR THR          
  18 A  266  ASN ASP ILE ALA VAL ILE TRP PRO LYS ASP ARG ALA PRO          
  19 A  266  LEU ILE LEU VAL THR TYR PHE THR GLN PRO GLN PRO LYS          
  20 A  266  ALA GLU SER ARG ARG ASP VAL LEU ALA SER ALA ALA LYS          
  21 A  266  ILE VAL THR ASP GLY LEU                                      
   1 B  266  LEU TYR ALA GLN THR ALA ASP VAL GLN GLN LYS LEU ALA          
   2 B  266  GLU LEU GLU ARG GLN SER GLY GLY ARG LEU GLY VAL ALA          
   3 B  266  LEU ILE ASN THR ALA ASP ASN SER GLN ILE LEU TYR ARG          
   4 B  266  ALA ASP GLU ARG PHE ALA MET CYS SER THR SER LYS VAL          
   5 B  266  MET ALA ALA ALA ALA VAL LEU LYS LYS SER GLU SER GLU          
   6 B  266  PRO ASN LEU LEU ASN GLN ARG VAL GLU ILE LYS LYS SER          
   7 B  266  ASP LEU VAL ASN TYR ASN PRO ILE ALA GLU LYS HIS VAL          
   8 B  266  ASN GLY THR MET SER LEU ALA GLU LEU SER ALA ALA ALA          
   9 B  266  LEU GLN TYR SER ASP ASN VAL ALA MET ASN LYS LEU ILE          
  10 B  266  ALA HIS VAL GLY GLY PRO ALA SER VAL THR ALA PHE ALA          
  11 B  266  ARG GLN LEU GLY ASP GLU THR PHE ARG LEU ASP ARG THR          
  12 B  266  GLU PRO THR LEU ASN THR ALA ILE PRO GLY ASP PRO ARG          
  13 B  266  ASP THR THR SER PRO ARG ALA MET ALA GLN THR LEU ARG          
  14 B  266  ASN LEU THR LEU GLY LYS ALA LEU GLY ASP SER GLN ARG          
  15 B  266  ALA GLN LEU VAL THR TRP MET LYS GLY ASN THR THR GLY          
  16 B  266  ALA ALA SER ILE GLN ALA GLY LEU PRO ALA SER TRP VAL          
  17 B  266  VAL GLY ASP LYS THR GLY SER GLY GLY TYR GLY THR THR          
  18 B  266  ASN ASP ILE ALA VAL ILE TRP PRO LYS ASP ARG ALA PRO          
  19 B  266  LEU ILE LEU VAL THR TYR PHE THR GLN PRO GLN PRO LYS          
  20 B  266  ALA GLU SER ARG ARG ASP VAL LEU ALA SER ALA ALA LYS          
  21 B  266  ILE VAL THR ASP GLY LEU                                      

>  <HET>
 5VR  A 301      35                                                       
 5VR  B 301      35                                                       

>  <HETNAM>
     5VR [[(3~{R},6~{S})-6-(ACETAMIDOCARBAMOYL)-1-METHANOYL-              
   2 5VR  PIPERIDIN-3-YL]AMINO] HYDROGEN SULFATE                          

>  <FORMUL>
   3  5VR    2(C9 H16 N4 O7 S)                                            
   5  HOH   *520(H2 O)                                                    

>  <HELIX>
   1 AA1 THR A   27  GLY A   42  1                                  16    
   2 AA2 CYS A   69  THR A   71  5                                   3    
   3 AA3 SER A   72  GLU A   85  1                                  14    
   4 AA4 ASN A   89  ASN A   92  5                                   4    
   5 AA5 LYS A   98  LEU A  102  5                                   5    
   6 AA6 ILE A  108  HIS A  112  5                                   5    
   7 AA7 LEU A  119  SER A  130  1                                  12    
   8 AA8 ASP A  131  GLY A  143  1                                  13    
   9 AA9 GLY A  144  LEU A  155  1                                  12    
  10 AB1 PRO A  167  THR A  171  5                                   5    
  11 AB2 SER A  182  LEU A  195  1                                  14    
  12 AB3 GLY A  200  GLY A  213  1                                  14    
  13 AB4 SER A  220  LEU A  225  5                                   6    
  14 AB5 ARG A  273  ASP A  286  1                                  14    
  15 AB6 VAL B   30  GLY B   42  1                                  13    
  16 AB7 CYS B   69  THR B   71  5                                   3    
  17 AB8 SER B   72  SER B   84  1                                  13    
  18 AB9 ASN B   89  ASN B   92  5                                   4    
  19 AC1 LYS B   98  LEU B  102  5                                   5    
  20 AC2 ILE B  108  HIS B  112  5                                   5    
  21 AC3 LEU B  119  SER B  130  1                                  12    
  22 AC4 ASP B  131  VAL B  142  1                                  12    
  23 AC5 GLY B  144  LEU B  155  1                                  12    
  24 AC6 PRO B  167  THR B  171  5                                   5    
  25 AC7 SER B  182  LEU B  195  1                                  14    
  26 AC8 GLY B  200  GLY B  213  1                                  14    
  27 AC9 SER B  220  LEU B  225  5                                   6    
  28 AD1 ARG B  273  ASP B  286  1                                  14    

>  <SHEET>
   1 AA1 5 GLN A  57  TYR A  60  0                                        
   2 AA1 5 ARG A  44  ASN A  51 -1  N  VAL A  47   O  TYR A  60           
   3 AA1 5 LEU A 257  THR A 264 -1  O  TYR A 262   N  GLY A  46           
   4 AA1 5 THR A 242  TRP A 250 -1  N  ILE A 249   O  LEU A 257           
   5 AA1 5 VAL A 230  GLY A 238 -1  N  VAL A 230   O  TRP A 250           
   1 AA2 2 PHE A  66  ALA A  67  0                                        
   2 AA2 2 THR A 180  THR A 181 -1  O  THR A 181   N  PHE A  66           
   1 AA3 2 ARG A  94  ILE A  97  0                                        
   2 AA3 2 GLY A 115  SER A 118 -1  O  GLY A 115   N  ILE A  97           
   1 AA4 5 GLN B  57  TYR B  60  0                                        
   2 AA4 5 ARG B  44  ASN B  51 -1  N  VAL B  47   O  TYR B  60           
   3 AA4 5 LEU B 257  THR B 264 -1  O  THR B 264   N  ARG B  44           
   4 AA4 5 THR B 242  TRP B 250 -1  N  ASP B 245   O  THR B 261           
   5 AA4 5 VAL B 230  GLY B 238 -1  N  VAL B 230   O  TRP B 250           
   1 AA5 2 PHE B  66  ALA B  67  0                                        
   2 AA5 2 THR B 180  THR B 181 -1  O  THR B 181   N  PHE B  66           
   1 AA6 2 ARG B  94  ILE B  97  0                                        
   2 AA6 2 GLY B 115  SER B 118 -1  O  MET B 117   N  VAL B  95           

>  <LINK>
       OG  SER A  70                 CAM 5VR A 301     1555   1555  1.29  
       OG  SER B  70                 CAM 5VR B 301     1555   1555  1.28  

>  <CISPEP>
   1 GLU A  166    PRO A  167          0        -1.42                     
   2 GLU B  166    PRO B  167          0         2.60                     

>  <SITE>
   1 AC1 17 CYS A  69  SER A  70  ASN A 104  SER A 130                    
   2 AC1 17 ASN A 132  PRO A 167  ASN A 170  LYS A 234                    
   3 AC1 17 THR A 235  GLY A 236  SER A 237  HOH A 401                    
   4 AC1 17 HOH A 539  HOH A 549  HOH A 568  HOH A 571                    
   5 AC1 17 HOH A 579                                                     
   1 AC2 21 MET B  68  CYS B  69  THR B  71  SER B  72                    
   2 AC2 21 LYS B  73  ASN B 104  SER B 130  ASN B 132                    
   3 AC2 21 GLU B 166  PRO B 167  ASN B 170  THR B 216                    
   4 AC2 21 LYS B 234  THR B 235  GLY B 236  SER B 237                    
   5 AC2 21 HOH B 441  HOH B 507  HOH B 523  HOH B 561                    
   6 AC2 21 HOH B 572                                                     

>  <ORIGX1>
      1.000000  0.000000  0.000000        0.00000                         

>  <ORIGX2>
      0.000000  1.000000  0.000000        0.00000                         

>  <ORIGX3>
      0.000000  0.000000  1.000000        0.00000                         

>  <SCALE1>
      0.015941  0.000000  0.006695        0.00000                         

>  <SCALE2>
      0.000000  0.016592  0.000000        0.00000                         

>  <SCALE3>
      0.000000  0.000000  0.014269        0.00000                         

>  <ANISOU>
  665  N   SER A  70      671   1447   1463     78   -346     25       N  
  666  CA  SER A  70      562   1311   1334     75   -351     25       C  
  667  C   SER A  70      912   1642   1678     59   -356     20       C  
  668  O   SER A  70     1000   1716   1753     61   -360     20       O  
  669  CB  SER A  70      810   1604   1606     75   -371     28       C  
  670  OG  SER A  70      825   1653   1634     95   -373     34       O  
  671  H   SER A  70      761   1572   1573     72   -350     27       H  
  672  HA  SER A  70      645   1383   1410     91   -350     29       H  
  673  HB2 SER A  70      733   1542   1542     58   -377     25       H  
  674  HB3 SER A  70      751   1529   1533     76   -377     27       H  
 7849  OAL 5VR A 301     1925   2928   1683   -346   -618   -243       O  
 7850  SAI 5VR A 301     1674   2685   1349   -358   -609   -259       S  
 7851  OAJ 5VR A 301     2124   3096   1794   -320   -576   -242       O  
 7852  OAK 5VR A 301     2470   3452   2074   -401   -599   -319       O  
 7853  OAH 5VR A 301     1592   2714   1249   -364   -653   -216       O  
 7854  NAG 5VR A 301     1254   2394    972   -325   -660   -160       N  
 7855  CAE 5VR A 301     1362   2599   1091   -329   -710   -121       C  
 7856  CAF 5VR A 301     1499   2773   1281   -347   -737   -131       C  
 7857  CB  5VR A 301     1253   2478   1119   -320   -722   -123       C  
 7858  CAD 5VR A 301     1278   2528   1057   -285   -719    -57       C  
 7859  N   5VR A 301     1302   2502   1160   -260   -704    -55       N  
 7860  CAM 5VR A 301     1281   2406   1153   -236   -665    -57       C  
 7861  OAN 5VR A 301     1183   2256   1096   -230   -646    -78       O  
 7862  CA  5VR A 301     1292   2519   1206   -271   -725    -66       C  
 7863  C   5VR A 301     1765   3080   1721   -259   -770    -22       C  
 7864  O   5VR A 301     1311   2669   1245   -245   -791     18       O  
 7865  NAQ 5VR A 301     2397   3740   2412   -265   -785    -32       N  
 7866  NAR 5VR A 301     1568   3000   1628   -256   -826     -1       N  
 7867  CAS 5VR A 301     1793   3235   1912   -210   -838     47       C  
 7868  OAU 5VR A 301     2093   3469   2226   -179   -815     66       O  
 7869  CAT 5VR A 301     2107   3651   2270   -199   -882     75       C  
 7870  HAG 5VR A 301     1235   2349    934   -306   -635   -148       H  
 7871  HAE 5VR A 301     1329   2596    996   -350   -713   -128       H  
 7872  HB4 5VR A 301     1617   2887   1362   -385   -735   -175       H  
 7873  HAF 5VR A 301     1430   2778   1225   -346   -772   -101       H  
 7874  HB2 5VR A 301     1378   2632   1280   -335   -739   -133       H  
 7875  HB1 5VR A 301     1411   2564   1265   -321   -689   -153       H  
 7876  HAD 5VR A 301     1458   2774   1247   -284   -754    -27       H  
 7877  HB3 5VR A 301     1422   2656   1169   -272   -703    -42       H  
 7878  HA  5VR A 301     1192   2374   1155   -254   -708    -67       H  
 7879  HAQ 5VR A 301     2444   3749   2478   -276   -767    -61       H  
 7880  HAR 5VR A 301     1482   2969   1523   -286   -846    -18       H  
 7881  HAT 5VR A 301     2001   3597   2119   -213   -905     83       H  
 7882  HB6 5VR A 301     2036   3581   2244   -159   -890    113       H  
 7883  HB5 5VR A 301     2120   3694   2316   -219   -887     50       H  

>  <MASTER>
      359    0    2   28   18    0   11    6 4452    2   72   42          

$$$$
