start_structures/Ligand_Substrate/Ligand_Complex_Stripped/5VW_5FAO.pdb
 OpenBabel08222315203D

 29 30  0  0  1  0  0  0  0  0999 V2000
  -10.6000  -10.5610   40.7880 N   0  0  0  0  0  0  0  0  0  0  0  0
  -11.3110  -10.0330   39.6270 C   0  0  2  0  0  0  0  0  0  0  0  0
  -11.6830   -8.5260   39.5770 C   0  0  0  0  0  0  0  0  0  0  0  0
  -12.1510   -8.0480   38.5390 O   0  0  0  0  0  0  0  0  0  0  0  0
  -12.5300  -10.9160   39.3680 C   0  0  0  0  0  0  0  0  0  0  0  0
  -12.1240  -12.2670   39.2400 O   0  0  0  0  0  0  0  0  0  0  0  0
  -17.0390  -11.9420   39.7190 O   0  0  0  0  0  0  0  0  0  0  0  0
  -17.0690  -13.3750   39.7970 S   0  0  0  0  0  0  0  0  0  0  0  0
  -16.4780  -13.6750   41.0610 O   0  0  0  0  0  0  0  0  0  0  0  0
  -18.4620  -13.6950   39.9690 O   0  0  0  0  0  0  0  0  0  0  0  0
  -16.4090  -14.0770   38.6190 O   0  0  0  0  0  0  0  0  0  0  0  0
  -15.0470  -14.0690   38.8310 N   0  0  0  0  0  0  0  0  0  0  0  0
  -14.4700  -15.2240   38.2500 C   0  0  2  0  0  0  0  0  0  0  0  0
  -14.6780  -16.4200   39.1810 C   0  0  0  0  0  0  0  0  0  0  0  0
  -13.9200  -16.2520   40.4910 C   0  0  0  0  0  0  0  0  0  0  0  0
  -12.9730  -14.9780   38.0090 C   0  0  0  0  0  0  0  0  0  0  0  0
  -12.5350  -14.7490   39.3720 N   0  0  0  0  0  0  0  0  0  0  0  0
  -12.1940  -13.5200   39.7710 C   0  0  0  0  0  0  0  0  0  0  0  0
  -11.8180  -13.3190   40.9370 O   0  0  0  0  0  0  0  0  0  0  0  0
  -12.4730  -15.8610   40.2870 C   0  0  2  0  0  0  0  0  0  0  0  0
  -11.6460  -16.9990   39.7480 C   0  0  0  0  0  0  0  0  0  0  0  0
  -11.7380  -17.3130   38.5910 O   0  0  0  0  0  0  0  0  0  0  0  0
  -10.7500  -17.7080   40.6120 N   0  0  0  0  0  0  0  0  0  0  0  0
   -9.9850  -18.7630   40.1080 O   0  0  0  0  0  0  0  0  0  0  0  0
   -8.6520  -18.7420   40.7070 C   0  0  1  0  0  0  0  0  0  0  0  0
   -8.7720  -18.8190   42.1700 C   0  0  0  0  0  0  0  0  0  0  0  0
   -8.2210  -20.2230   42.5560 C   0  0  0  0  0  0  0  0  0  0  0  0
   -7.3080  -20.5670   41.4000 N   0  0  0  0  0  0  0  0  0  0  0  0
   -7.8700  -19.9040   40.2180 C   0  0  0  0  0  0  0  0  0  0  0  0
  2  1  1  1  0  0  0
  3  2  1  0  0  0  0
  4  3  2  0  0  0  0
  5  2  1  0  0  0  0
  6 18  1  0  0  0  0
  6  5  1  0  0  0  0
  7  8  1  0  0  0  0
  8  9  1  0  0  0  0
  8 10  1  0  0  0  0
  8 11  1  0  0  0  0
 11 12  1  0  0  0  0
 13 12  1  1  0  0  0
 13 14  1  0  0  0  0
 13 16  1  0  0  0  0
 14 15  1  0  0  0  0
 15 20  1  0  0  0  0
 16 17  1  0  0  0  0
 17 18  1  0  0  0  0
 17 20  1  0  0  0  0
 18 19  2  0  0  0  0
 20 21  1  6  0  0  0
 21 22  2  0  0  0  0
 21 23  1  0  0  0  0
 23 24  1  0  0  0  0
 25 24  1  6  0  0  0
 25 26  1  0  0  0  0
 25 29  1  0  0  0  0
 26 27  1  0  0  0  0
 27 28  1  0  0  0  0
 28 29  1  0  0  0  0
M  END
>  <HEADER>
    HYDROLASE/HYDROLASE INHIBITOR           11-DEC-15   5FAO              

>  <TITLE>
    CTX-M-15 IN COMPLEX WITH FPI-1465                                     

>  <COMPND>
    MOL_ID: 1;                                                            
   2 MOLECULE: BETA-LACTAMASE;                                            
   3 CHAIN: A, B;                                                         
   4 EC: 3.5.2.6;                                                         
   5 ENGINEERED: YES                                                      

>  <SOURCE>
    MOL_ID: 1;                                                            
   2 ORGANISM_SCIENTIFIC: ESCHERICHIA COLI;                               
   3 ORGANISM_TAXID: 562;                                                 
   4 GENE: BLAUOE-1, BLA, BLA CTX-M-15, BLA_1, BLA_2, BLA_3, BLACTX-M-15, 
   5 BLACTX-M15, CTX-M-15, ECONIH1_02760, ECONIH1_27135, ERS085368_04262, 
   6 ERS085370_01802, ERS085377_05268, ERS139214_01914, ERS139238_04648,  
   7 ERS139238_04652, ERS150880_04508, HUS2011_PI0012, PCTXM15_EC8_00003, 
   8 SK84_05077, SK86_03319;                                              
   9 EXPRESSION_SYSTEM: ESCHERICHIA COLI;                                 
  10 EXPRESSION_SYSTEM_TAXID: 562                                         

>  <KEYWDS>
    HYDROLASE-HYDROLASE INHIBITOR COMPLEX                                 

>  <EXPDTA>
    X-RAY DIFFRACTION                                                     

>  <AUTHOR>
    A.M.KING,D.T.KING,S.FRENCH,E.BROUILLETTE,A.ASLI,A.N.ALEXANDER,        
   2 M.VUCKOVIC,S.N.MAITI,T.R.PARR,E.D.BROWN,F.MALOUIN,N.C.J.STRYNADKA,   
   3 G.D.WRIGHT                                                           

>  <REVDAT>
   3   20-NOV-19 5FAO    1       REMARK                                   
   2   27-APR-16 5FAO    1       JRNL                                     
   1   17-FEB-16 5FAO    0                                                

>  <JRNL>
      AUTH   A.M.KING,D.T.KING,S.FRENCH,E.BROUILLETTE,A.ASLI,             
      AUTH 2 J.A.ALEXANDER,M.VUCKOVIC,S.N.MAITI,T.R.PARR,E.D.BROWN,       
      AUTH 3 F.MALOUIN,N.C.STRYNADKA,G.D.WRIGHT                           
      TITL   STRUCTURAL AND KINETIC CHARACTERIZATION OF                   
      TITL 2 DIAZABICYCLOOCTANES AS DUAL INHIBITORS OF BOTH               
      TITL 3 SERINE-BETA-LACTAMASES AND PENICILLIN-BINDING PROTEINS.      
      REF    ACS CHEM.BIOL.                V.  11   864 2016              
      REFN                   ESSN 1554-8937                               
      PMID   26731698                                                     
      DOI    10.1021/ACSCHEMBIO.5B00944                                   

>  <REMARK>
   2                                                                      
   2 RESOLUTION.    3.01 ANGSTROMS.                                       
   3                                                                      
   3 REFINEMENT.                                                          
   3   PROGRAM     : REFMAC 5.8.0071                                      
   3   AUTHORS     : MURSHUDOV,SKUBAK,LEBEDEV,PANNU,STEINER,              
   3               : NICHOLLS,WINN,LONG,VAGIN                             
   3                                                                      
   3    REFINEMENT TARGET : MAXIMUM LIKELIHOOD                            
   3                                                                      
   3  DATA USED IN REFINEMENT.                                            
   3   RESOLUTION RANGE HIGH (ANGSTROMS) : 3.01                           
   3   RESOLUTION RANGE LOW  (ANGSTROMS) : 33.28                          
   3   DATA CUTOFF            (SIGMA(F)) : NULL                           
   3   COMPLETENESS FOR RANGE        (%) : 98.2                           
   3   NUMBER OF REFLECTIONS             : 9487                           
   3                                                                      
   3  FIT TO DATA USED IN REFINEMENT.                                     
   3   CROSS-VALIDATION METHOD          : THROUGHOUT                      
   3   FREE R VALUE TEST SET SELECTION  : RANDOM                          
   3   R VALUE     (WORKING + TEST SET) : 0.226                           
   3   R VALUE            (WORKING SET) : 0.223                           
   3   FREE R VALUE                     : 0.272                           
   3   FREE R VALUE TEST SET SIZE   (%) : 5.400                           
   3   FREE R VALUE TEST SET COUNT      : 541                             
   3                                                                      
   3  FIT IN THE HIGHEST RESOLUTION BIN.                                  
   3   TOTAL NUMBER OF BINS USED           : 20                           
   3   BIN RESOLUTION RANGE HIGH       (A) : 3.01                         
   3   BIN RESOLUTION RANGE LOW        (A) : 3.09                         
   3   REFLECTION IN BIN     (WORKING SET) : 666                          
   3   BIN COMPLETENESS (WORKING+TEST) (%) : 96.45                        
   3   BIN R VALUE           (WORKING SET) : 0.3290                       
   3   BIN FREE R VALUE SET COUNT          : 40                           
   3   BIN FREE R VALUE                    : 0.4130                       
   3                                                                      
   3  NUMBER OF NON-HYDROGEN ATOMS USED IN REFINEMENT.                    
   3   PROTEIN ATOMS            : 3888                                    
   3   NUCLEIC ACID ATOMS       : 0                                       
   3   HETEROGEN ATOMS          : 46                                      
   3   SOLVENT ATOMS            : 33                                      
   3                                                                      
   3  B VALUES.                                                           
   3   FROM WILSON PLOT           (A**2) : NULL                           
   3   MEAN B VALUE      (OVERALL, A**2) : 30.23                          
   3   OVERALL ANISOTROPIC B VALUE.                                       
   3    B11 (A**2) : 1.93000                                              
   3    B22 (A**2) : -0.31000                                             
   3    B33 (A**2) : -1.62000                                             
   3    B12 (A**2) : 0.00000                                              
   3    B13 (A**2) : 0.00000                                              
   3    B23 (A**2) : 0.00000                                              
   3                                                                      
   3  ESTIMATED OVERALL COORDINATE ERROR.                                 
   3   ESU BASED ON R VALUE                            (A): NULL          
   3   ESU BASED ON FREE R VALUE                       (A): 0.541         
   3   ESU BASED ON MAXIMUM LIKELIHOOD                 (A): 0.449         
   3   ESU FOR B VALUES BASED ON MAXIMUM LIKELIHOOD (A**2): 24.706        
   3                                                                      
   3 CORRELATION COEFFICIENTS.                                            
   3   CORRELATION COEFFICIENT FO-FC      : 0.901                         
   3   CORRELATION COEFFICIENT FO-FC FREE : 0.859                         
   3                                                                      
   3  RMS DEVIATIONS FROM IDEAL VALUES        COUNT    RMS    WEIGHT      
   3   BOND LENGTHS REFINED ATOMS        (A):  3994 ; 0.010 ; 0.019       
   3   BOND LENGTHS OTHERS               (A):  3894 ; 0.002 ; 0.020       
   3   BOND ANGLES REFINED ATOMS   (DEGREES):  5420 ; 1.430 ; 1.979       
   3   BOND ANGLES OTHERS          (DEGREES):  8948 ; 2.225 ; 3.000       
   3   TORSION ANGLES, PERIOD 1    (DEGREES):   516 ; 2.953 ; 5.000       
   3   TORSION ANGLES, PERIOD 2    (DEGREES):   162 ;45.797 ;24.568       
   3   TORSION ANGLES, PERIOD 3    (DEGREES):   676 ;16.409 ;15.000       
   3   TORSION ANGLES, PERIOD 4    (DEGREES):    30 ;10.398 ;15.000       
   3   CHIRAL-CENTER RESTRAINTS       (A**3):   636 ; 0.085 ; 0.200       
   3   GENERAL PLANES REFINED ATOMS      (A):  4546 ; 0.005 ; 0.021       
   3   GENERAL PLANES OTHERS             (A):   850 ; 0.003 ; 0.020       
   3   NON-BONDED CONTACTS REFINED ATOMS (A):  NULL ;  NULL ;  NULL       
   3   NON-BONDED CONTACTS OTHERS        (A):  NULL ;  NULL ;  NULL       
   3   NON-BONDED TORSION REFINED ATOMS  (A):  NULL ;  NULL ;  NULL       
   3   NON-BONDED TORSION OTHERS         (A):  NULL ;  NULL ;  NULL       
   3   H-BOND (X...Y) REFINED ATOMS      (A):  NULL ;  NULL ;  NULL       
   3   H-BOND (X...Y) OTHERS             (A):  NULL ;  NULL ;  NULL       
   3   POTENTIAL METAL-ION REFINED ATOMS (A):  NULL ;  NULL ;  NULL       
   3   POTENTIAL METAL-ION OTHERS        (A):  NULL ;  NULL ;  NULL       
   3   SYMMETRY VDW REFINED ATOMS        (A):  NULL ;  NULL ;  NULL       
   3   SYMMETRY VDW OTHERS               (A):  NULL ;  NULL ;  NULL       
   3   SYMMETRY H-BOND REFINED ATOMS     (A):  NULL ;  NULL ;  NULL       
   3   SYMMETRY H-BOND OTHERS            (A):  NULL ;  NULL ;  NULL       
   3   SYMMETRY METAL-ION REFINED ATOMS  (A):  NULL ;  NULL ;  NULL       
   3   SYMMETRY METAL-ION OTHERS         (A):  NULL ;  NULL ;  NULL       
   3                                                                      
   3  ISOTROPIC THERMAL FACTOR RESTRAINTS.     COUNT   RMS    WEIGHT      
   3   MAIN-CHAIN BOND REFINED ATOMS  (A**2):  2076 ; 1.221 ; 2.781       
   3   MAIN-CHAIN BOND OTHER ATOMS    (A**2):  2075 ; 1.219 ; 2.780       
   3   MAIN-CHAIN ANGLE REFINED ATOMS (A**2):  2588 ; 1.865 ; 4.146       
   3   MAIN-CHAIN ANGLE OTHER ATOMS   (A**2):  2589 ; 1.866 ; 4.148       
   3   SIDE-CHAIN BOND REFINED ATOMS  (A**2):  1918 ; 2.737 ; 3.246       
   3   SIDE-CHAIN BOND OTHER ATOMS    (A**2):  1919 ; 2.736 ; 3.247       
   3   SIDE-CHAIN ANGLE REFINED ATOMS (A**2):  NULL ;  NULL ;  NULL       
   3   SIDE-CHAIN ANGLE OTHER ATOMS   (A**2):  2833 ; 4.307 ; 4.684       
   3   LONG RANGE B REFINED ATOMS     (A**2):  3958 ; 5.552 ;21.909       
   3   LONG RANGE B OTHER ATOMS       (A**2):  3959 ; 5.551 ;21.920       
   3                                                                      
   3 ANISOTROPIC THERMAL FACTOR RESTRAINTS.    COUNT   RMS   WEIGHT       
   3   RIGID-BOND RESTRAINTS          (A**2):  NULL ;  NULL ;  NULL       
   3   SPHERICITY; FREE ATOMS         (A**2):  NULL ;  NULL ;  NULL       
   3   SPHERICITY; BONDED ATOMS       (A**2):  NULL ;  NULL ;  NULL       
   3                                                                      
   3  NCS RESTRAINTS STATISTICS                                           
   3   NUMBER OF DIFFERENT NCS GROUPS : NULL                              
   3                                                                      
   3  TLS DETAILS                                                         
   3   NUMBER OF TLS GROUPS  : NULL                                       
   3                                                                      
   3  BULK SOLVENT MODELLING.                                             
   3   METHOD USED : MASK                                                 
   3   PARAMETERS FOR MASK CALCULATION                                    
   3   VDW PROBE RADIUS   : 1.20                                          
   3   ION PROBE RADIUS   : 0.80                                          
   3   SHRINKAGE RADIUS   : 0.80                                          
   3                                                                      
   3  OTHER REFINEMENT REMARKS: HYDROGENS HAVE BEEN ADDED IN THE RIDING   
   3  POSITIONS                                                           
   4                                                                      
   4 5FAO COMPLIES WITH FORMAT V. 3.30, 13-JUL-11                         
 100                                                                      
 100 THIS ENTRY HAS BEEN PROCESSED BY RCSB ON 15-DEC-15.                  
 100 THE DEPOSITION ID IS D_1000216262.                                   
 200                                                                      
 200 EXPERIMENTAL DETAILS                                                 
 200  EXPERIMENT TYPE                : X-RAY DIFFRACTION                  
 200  DATE OF DATA COLLECTION        : 14-JUL-13                          
 200  TEMPERATURE           (KELVIN) : 100                                
 200  PH                             : 6.5                                
 200  NUMBER OF CRYSTALS USED        : NULL                               
 200                                                                      
 200  SYNCHROTRON              (Y/N) : Y                                  
 200  RADIATION SOURCE               : CLSI                               
 200  BEAMLINE                       : 08ID-1                             
 200  X-RAY GENERATOR MODEL          : NULL                               
 200  MONOCHROMATIC OR LAUE    (M/L) : M                                  
 200  WAVELENGTH OR RANGE        (A) : 1.00                               
 200  MONOCHROMATOR                  : NULL                               
 200  OPTICS                         : NULL                               
 200                                                                      
 200  DETECTOR TYPE                  : CCD                                
 200  DETECTOR MANUFACTURER          : RAYONIX MX-300                     
 200  INTENSITY-INTEGRATION SOFTWARE : XIA2                               
 200  DATA SCALING SOFTWARE          : AIMLESS                            
 200                                                                      
 200  NUMBER OF UNIQUE REFLECTIONS   : 10061                              
 200  RESOLUTION RANGE HIGH      (A) : 3.000                              
 200  RESOLUTION RANGE LOW       (A) : 33.280                             
 200  REJECTION CRITERIA  (SIGMA(I)) : NULL                               
 200                                                                      
 200 OVERALL.                                                             
 200  COMPLETENESS FOR RANGE     (%) : 98.3                               
 200  DATA REDUNDANCY                : 4.400                              
 200  R MERGE                    (I) : NULL                               
 200  R SYM                      (I) : NULL                               
 200  <I/SIGMA(I)> FOR THE DATA SET  : 7.8000                             
 200                                                                      
 200 IN THE HIGHEST RESOLUTION SHELL.                                     
 200  HIGHEST RESOLUTION SHELL, RANGE HIGH (A) : NULL                     
 200  HIGHEST RESOLUTION SHELL, RANGE LOW  (A) : NULL                     
 200  COMPLETENESS FOR SHELL     (%) : NULL                               
 200  DATA REDUNDANCY IN SHELL       : NULL                               
 200  R MERGE FOR SHELL          (I) : NULL                               
 200  R SYM FOR SHELL            (I) : NULL                               
 200  <I/SIGMA(I)> FOR SHELL         : NULL                               
 200                                                                      
 200 DIFFRACTION PROTOCOL: SINGLE WAVELENGTH                              
 200 METHOD USED TO DETERMINE THE STRUCTURE: MOLECULAR REPLACEMENT        
 200 SOFTWARE USED: PHASER                                                
 200 STARTING MODEL: 4HBT                                                 
 200                                                                      
 200 REMARK: NULL                                                         
 280                                                                      
 280 CRYSTAL                                                              
 280 SOLVENT CONTENT, VS   (%): 36.50                                     
 280 MATTHEWS COEFFICIENT, VM (ANGSTROMS**3/DA): 1.94                     
 280                                                                      
 280 CRYSTALLIZATION CONDITIONS: 0.2M AMMONIUM SULFATE, 0.1M MES PH6.5,   
 280  30% PEG5K MONOMETHYL ETHER, VAPOR DIFFUSION, SITTING DROP,          
 280  TEMPERATURE 298K                                                    
 290                                                                      
 290 CRYSTALLOGRAPHIC SYMMETRY                                            
 290 SYMMETRY OPERATORS FOR SPACE GROUP: P 21 21 21                       
 290                                                                      
 290      SYMOP   SYMMETRY                                                
 290     NNNMMM   OPERATOR                                                
 290       1555   X,Y,Z                                                   
 290       2555   -X+1/2,-Y,Z+1/2                                         
 290       3555   -X,Y+1/2,-Z+1/2                                         
 290       4555   X+1/2,-Y+1/2,-Z                                         
 290                                                                      
 290     WHERE NNN -> OPERATOR NUMBER                                     
 290           MMM -> TRANSLATION VECTOR                                  
 290                                                                      
 290 CRYSTALLOGRAPHIC SYMMETRY TRANSFORMATIONS                            
 290 THE FOLLOWING TRANSFORMATIONS OPERATE ON THE ATOM/HETATM             
 290 RECORDS IN THIS ENTRY TO PRODUCE CRYSTALLOGRAPHICALLY                
 290 RELATED MOLECULES.                                                   
 290   SMTRY1   1  1.000000  0.000000  0.000000        0.00000            
 290   SMTRY2   1  0.000000  1.000000  0.000000        0.00000            
 290   SMTRY3   1  0.000000  0.000000  1.000000        0.00000            
 290   SMTRY1   2 -1.000000  0.000000  0.000000       21.94500            
 290   SMTRY2   2  0.000000 -1.000000  0.000000        0.00000            
 290   SMTRY3   2  0.000000  0.000000  1.000000       87.74500            
 290   SMTRY1   3 -1.000000  0.000000  0.000000        0.00000            
 290   SMTRY2   3  0.000000  1.000000  0.000000       31.36500            
 290   SMTRY3   3  0.000000  0.000000 -1.000000       87.74500            
 290   SMTRY1   4  1.000000  0.000000  0.000000       21.94500            
 290   SMTRY2   4  0.000000 -1.000000  0.000000       31.36500            
 290   SMTRY3   4  0.000000  0.000000 -1.000000        0.00000            
 290                                                                      
 290 REMARK: NULL                                                         
 300                                                                      
 300 BIOMOLECULE: 1, 2                                                    
 300 SEE REMARK 350 FOR THE AUTHOR PROVIDED AND/OR PROGRAM                
 300 GENERATED ASSEMBLY INFORMATION FOR THE STRUCTURE IN                  
 300 THIS ENTRY. THE REMARK MAY ALSO PROVIDE INFORMATION ON               
 300 BURIED SURFACE AREA.                                                 
 350                                                                      
 350 COORDINATES FOR A COMPLETE MULTIMER REPRESENTING THE KNOWN           
 350 BIOLOGICALLY SIGNIFICANT OLIGOMERIZATION STATE OF THE                
 350 MOLECULE CAN BE GENERATED BY APPLYING BIOMT TRANSFORMATIONS          
 350 GIVEN BELOW.  BOTH NON-CRYSTALLOGRAPHIC AND                          
 350 CRYSTALLOGRAPHIC OPERATIONS ARE GIVEN.                               
 350                                                                      
 350 BIOMOLECULE: 1                                                       
 350 AUTHOR DETERMINED BIOLOGICAL UNIT: MONOMERIC                         
 350 SOFTWARE DETERMINED QUATERNARY STRUCTURE: MONOMERIC                  
 350 SOFTWARE USED: PISA                                                  
 350 APPLY THE FOLLOWING TO CHAINS: A                                     
 350   BIOMT1   1  1.000000  0.000000  0.000000        0.00000            
 350   BIOMT2   1  0.000000  1.000000  0.000000        0.00000            
 350   BIOMT3   1  0.000000  0.000000  1.000000        0.00000            
 350                                                                      
 350 BIOMOLECULE: 2                                                       
 350 AUTHOR DETERMINED BIOLOGICAL UNIT: MONOMERIC                         
 350 SOFTWARE DETERMINED QUATERNARY STRUCTURE: MONOMERIC                  
 350 SOFTWARE USED: PISA                                                  
 350 APPLY THE FOLLOWING TO CHAINS: B                                     
 350   BIOMT1   1  1.000000  0.000000  0.000000        0.00000            
 350   BIOMT2   1  0.000000  1.000000  0.000000        0.00000            
 350   BIOMT3   1  0.000000  0.000000  1.000000        0.00000            
 465                                                                      
 465 MISSING RESIDUES                                                     
 465 THE FOLLOWING RESIDUES WERE NOT LOCATED IN THE                       
 465 EXPERIMENT. (M=MODEL NUMBER; RES=RESIDUE NAME; C=CHAIN               
 465 IDENTIFIER; SSSEQ=SEQUENCE NUMBER; I=INSERTION CODE.)                
 465                                                                      
 465   M RES C SSSEQI                                                     
 465     GLN A    26                                                      
 465     THR A    27                                                      
 465     GLY A   287                                                      
 465     LEU A   288                                                      
 465     GLN B    26                                                      
 465     THR B    27                                                      
 465     GLY B   287                                                      
 465     LEU B   288                                                      
 500                                                                      
 500 GEOMETRY AND STEREOCHEMISTRY                                         
 500 SUBTOPIC: CLOSE CONTACTS IN SAME ASYMMETRIC UNIT                     
 500                                                                      
 500 THE FOLLOWING ATOMS ARE IN CLOSE CONTACT.                            
 500                                                                      
 500  ATM1  RES C  SSEQI   ATM2  RES C  SSEQI           DISTANCE          
 500   OG   SER B    70     OAQ  5VW B   301              1.75            
 500   OG   SER A    70     OAQ  5VW A   301              2.02            
 500                                                                      
 500 REMARK: NULL                                                         
 500                                                                      
 500 GEOMETRY AND STEREOCHEMISTRY                                         
 500 SUBTOPIC: TORSION ANGLES                                             
 500                                                                      
 500 TORSION ANGLES OUTSIDE THE EXPECTED RAMACHANDRAN REGIONS:            
 500 (M=MODEL NUMBER; RES=RESIDUE NAME; C=CHAIN IDENTIFIER;               
 500 SSEQ=SEQUENCE NUMBER; I=INSERTION CODE).                             
 500                                                                      
 500 STANDARD TABLE:                                                      
 500 FORMAT:(10X,I3,1X,A3,1X,A1,I4,A1,4X,F7.2,3X,F7.2)                    
 500                                                                      
 500 EXPECTED VALUES: GJ KLEYWEGT AND TA JONES (1996). PHI/PSI-           
 500 CHOLOGY: RAMACHANDRAN REVISITED. STRUCTURE 4, 1395 - 1400            
 500                                                                      
 500  M RES CSSEQI        PSI       PHI                                   
 500    CYS A  69     -117.18     59.86                                   
 500    VAL A 103     -159.11   -127.03                                   
 500    SER A 220     -137.45   -102.94                                   
 500    CYS B  69     -118.24     60.62                                   
 500    VAL B 103     -154.04   -126.14                                   
 500    SER B 220      -79.34    -86.66                                   
 500    ARG B 273       75.08   -118.64                                   
 500                                                                      
 500 REMARK: NULL                                                         
 800                                                                      
 800 SITE                                                                 
 800 SITE_IDENTIFIER: AC1                                                 
 800 EVIDENCE_CODE: SOFTWARE                                              
 800 SITE_DESCRIPTION: binding site for residue 5VW A 301                 
 900                                                                      
 900 RELATED ENTRIES                                                      
 900 RELATED ID: 5FA7   RELATED DB: PDB                                   
 900 RELATED ID: 5FAP   RELATED DB: PDB                                   
 900 RELATED ID: 5FAQ   RELATED DB: PDB                                   
 900 RELATED ID: 5FAS   RELATED DB: PDB                                   
 900 RELATED ID: 5FAT   RELATED DB: PDB                                   

>  <DBREF>
 5FAO A   26   288  UNP    Q9EXV5   Q9EXV5_ECOLX    29    291             
 5FAO B   26   288  UNP    Q9EXV5   Q9EXV5_ECOLX    29    291             

>  <SEQRES>
   1 A  263  GLN THR ALA ASP VAL GLN GLN LYS LEU ALA GLU LEU GLU          
   2 A  263  ARG GLN SER GLY GLY ARG LEU GLY VAL ALA LEU ILE ASN          
   3 A  263  THR ALA ASP ASN SER GLN ILE LEU TYR ARG ALA ASP GLU          
   4 A  263  ARG PHE ALA MET CYS SER THR SER LYS VAL MET ALA ALA          
   5 A  263  ALA ALA VAL LEU LYS LYS SER GLU SER GLU PRO ASN LEU          
   6 A  263  LEU ASN GLN ARG VAL GLU ILE LYS LYS SER ASP LEU VAL          
   7 A  263  ASN TYR ASN PRO ILE ALA GLU LYS HIS VAL ASN GLY THR          
   8 A  263  MET SER LEU ALA GLU LEU SER ALA ALA ALA LEU GLN TYR          
   9 A  263  SER ASP ASN VAL ALA MET ASN LYS LEU ILE ALA HIS VAL          
  10 A  263  GLY GLY PRO ALA SER VAL THR ALA PHE ALA ARG GLN LEU          
  11 A  263  GLY ASP GLU THR PHE ARG LEU ASP ARG THR GLU PRO THR          
  12 A  263  LEU ASN THR ALA ILE PRO GLY ASP PRO ARG ASP THR THR          
  13 A  263  SER PRO ARG ALA MET ALA GLN THR LEU ARG ASN LEU THR          
  14 A  263  LEU GLY LYS ALA LEU GLY ASP SER GLN ARG ALA GLN LEU          
  15 A  263  VAL THR TRP MET LYS GLY ASN THR THR GLY ALA ALA SER          
  16 A  263  ILE GLN ALA GLY LEU PRO ALA SER TRP VAL VAL GLY ASP          
  17 A  263  LYS THR GLY SER GLY GLY TYR GLY THR THR ASN ASP ILE          
  18 A  263  ALA VAL ILE TRP PRO LYS ASP ARG ALA PRO LEU ILE LEU          
  19 A  263  VAL THR TYR PHE THR GLN PRO GLN PRO LYS ALA GLU SER          
  20 A  263  ARG ARG ASP VAL LEU ALA SER ALA ALA LYS ILE VAL THR          
  21 A  263  ASP GLY LEU                                                  
   1 B  263  GLN THR ALA ASP VAL GLN GLN LYS LEU ALA GLU LEU GLU          
   2 B  263  ARG GLN SER GLY GLY ARG LEU GLY VAL ALA LEU ILE ASN          
   3 B  263  THR ALA ASP ASN SER GLN ILE LEU TYR ARG ALA ASP GLU          
   4 B  263  ARG PHE ALA MET CYS SER THR SER LYS VAL MET ALA ALA          
   5 B  263  ALA ALA VAL LEU LYS LYS SER GLU SER GLU PRO ASN LEU          
   6 B  263  LEU ASN GLN ARG VAL GLU ILE LYS LYS SER ASP LEU VAL          
   7 B  263  ASN TYR ASN PRO ILE ALA GLU LYS HIS VAL ASN GLY THR          
   8 B  263  MET SER LEU ALA GLU LEU SER ALA ALA ALA LEU GLN TYR          
   9 B  263  SER ASP ASN VAL ALA MET ASN LYS LEU ILE ALA HIS VAL          
  10 B  263  GLY GLY PRO ALA SER VAL THR ALA PHE ALA ARG GLN LEU          
  11 B  263  GLY ASP GLU THR PHE ARG LEU ASP ARG THR GLU PRO THR          
  12 B  263  LEU ASN THR ALA ILE PRO GLY ASP PRO ARG ASP THR THR          
  13 B  263  SER PRO ARG ALA MET ALA GLN THR LEU ARG ASN LEU THR          
  14 B  263  LEU GLY LYS ALA LEU GLY ASP SER GLN ARG ALA GLN LEU          
  15 B  263  VAL THR TRP MET LYS GLY ASN THR THR GLY ALA ALA SER          
  16 B  263  ILE GLN ALA GLY LEU PRO ALA SER TRP VAL VAL GLY ASP          
  17 B  263  LYS THR GLY SER GLY GLY TYR GLY THR THR ASN ASP ILE          
  18 B  263  ALA VAL ILE TRP PRO LYS ASP ARG ALA PRO LEU ILE LEU          
  19 B  263  VAL THR TYR PHE THR GLN PRO GLN PRO LYS ALA GLU SER          
  20 B  263  ARG ARG ASP VAL LEU ALA SER ALA ALA LYS ILE VAL THR          
  21 B  263  ASP GLY LEU                                                  

>  <HET>
 5VW  A 301      23                                                       
 5VW  B 301      23                                                       

>  <HETNAM>
     5VW [[(3~{R},6~{S})-1-METHANOYL-6-[[(3~{S})-PYRROLIDIN-3-            
   2 5VW  YL]OXYCARBAMOYL]PIPERIDIN-3-YL]AMINO] HYDROGEN SULFATE          

>  <HETSYN>
     5VW FPI-1465, BOUND FORM                                             

>  <FORMUL>
   3  5VW    2(C11 H20 N4 O7 S)                                           
   5  HOH   *33(H2 O)                                                     

>  <HELIX>
   1 AA1 ALA A   28  GLY A   42  1                                  15    
   2 AA2 CYS A   69  THR A   71  5                                   3    
   3 AA3 SER A   72  GLU A   87  1                                  16    
   4 AA4 ASN A   89  ASN A   92  5                                   4    
   5 AA5 LYS A   98  LEU A  102  5                                   5    
   6 AA6 ILE A  108  VAL A  113  5                                   6    
   7 AA7 LEU A  119  TYR A  129  1                                  11    
   8 AA8 ASP A  131  GLY A  143  1                                  13    
   9 AA9 GLY A  144  GLY A  156  1                                  13    
  10 AB1 PRO A  167  THR A  171  5                                   5    
  11 AB2 SER A  182  LEU A  195  1                                  14    
  12 AB3 GLY A  200  GLY A  213  1                                  14    
  13 AB4 SER A  220  LEU A  225  5                                   6    
  14 AB5 ARG A  273  ASP A  286  1                                  14    
  15 AB6 ASP B   29  GLY B   42  1                                  14    
  16 AB7 CYS B   69  THR B   71  5                                   3    
  17 AB8 SER B   72  SER B   84  1                                  13    
  18 AB9 ASN B   89  ASN B   92  5                                   4    
  19 AC1 ILE B  108  VAL B  113  5                                   6    
  20 AC2 LEU B  119  TYR B  129  1                                  11    
  21 AC3 ASP B  131  GLY B  143  1                                  13    
  22 AC4 GLY B  144  LEU B  155  1                                  12    
  23 AC5 PRO B  167  THR B  171  5                                   5    
  24 AC6 SER B  182  LEU B  195  1                                  14    
  25 AC7 GLY B  200  GLY B  213  1                                  14    
  26 AC8 ILE B  221  LEU B  225  5                                   5    
  27 AC9 ARG B  273  ASP B  286  1                                  14    

>  <SHEET>
   1 AA1 5 SER A  56  TYR A  60  0                                        
   2 AA1 5 ARG A  44  ASN A  51 -1  N  VAL A  47   O  TYR A  60           
   3 AA1 5 LEU A 257  THR A 264 -1  O  TYR A 262   N  GLY A  46           
   4 AA1 5 THR A 242  TRP A 250 -1  N  ILE A 249   O  LEU A 257           
   5 AA1 5 VAL A 230  GLY A 238 -1  N  VAL A 230   O  TRP A 250           
   1 AA2 2 PHE A  66  ALA A  67  0                                        
   2 AA2 2 THR A 180  THR A 181 -1  O  THR A 181   N  PHE A  66           
   1 AA3 2 ARG A  94  ILE A  97  0                                        
   2 AA3 2 GLY A 115  SER A 118 -1  O  GLY A 115   N  ILE A  97           
   1 AA4 5 GLN B  57  TYR B  60  0                                        
   2 AA4 5 ARG B  44  ASN B  51 -1  N  LEU B  49   O  ILE B  58           
   3 AA4 5 LEU B 257  THR B 264 -1  O  TYR B 262   N  GLY B  46           
   4 AA4 5 THR B 242  TRP B 250 -1  N  ILE B 249   O  LEU B 257           
   5 AA4 5 VAL B 230  GLY B 238 -1  N  VAL B 230   O  TRP B 250           
   1 AA5 2 PHE B  66  ALA B  67  0                                        
   2 AA5 2 THR B 180  THR B 181 -1  O  THR B 181   N  PHE B  66           
   1 AA6 2 ARG B  94  ILE B  97  0                                        
   2 AA6 2 GLY B 115  SER B 118 -1  O  GLY B 115   N  ILE B  97           

>  <LINK>
       OG  SER A  70                 CAP 5VW A 301     1555   1555  1.36  
       OG  SER B  70                 CAP 5VW B 301     1555   1555  1.19  

>  <CISPEP>
   1 GLU A  166    PRO A  167          0         5.28                     
   2 GLU B  166    PRO B  167          0         4.40                     

>  <SITE>
   1 AC1 14 CYS A  69  SER A  70  ASN A 104  TYR A 105                    
   2 AC1 14 SER A 130  ASN A 132  PRO A 167  ASN A 170                    
   3 AC1 14 THR A 216  THR A 235  SER A 237  LYS A 252                    
   4 AC1 14 ASP A 253  ARG A 254                                          

>  <ORIGX1>
      1.000000  0.000000  0.000000        0.00000                         

>  <ORIGX2>
      0.000000  1.000000  0.000000        0.00000                         

>  <ORIGX3>
      0.000000  0.000000  1.000000        0.00000                         

>  <SCALE1>
      0.022784  0.000000  0.000000        0.00000                         

>  <SCALE2>
      0.000000  0.015941  0.000000        0.00000                         

>  <SCALE3>
      0.000000  0.000000  0.005698        0.00000                         

>  <MASTER>
      308    0    2   27   18    0    4    6 3967    2   48   42          

$$$$
