start_structures/Ligand_Substrate/Ligand_Complex_Stripped/602_5FAP.pdb
 OpenBabel08222315203D

 30 31  0  0  1  0  0  0  0  0999 V2000
   -2.9500  -25.4190   17.9680 N   0  0  0  0  0  0  0  0  0  0  0  0
   -4.2150  -26.1170   18.2320 C   0  0  2  0  0  0  0  0  0  0  0  0
   -5.4880  -25.2830   17.9990 C   0  0  0  0  0  0  0  0  0  0  0  0
   -6.5980  -25.8190   18.0750 O   0  0  0  0  0  0  0  0  0  0  0  0
   -4.2350  -26.6950   19.6520 C   0  0  0  0  0  0  0  0  0  0  0  0
   -3.2880  -27.7450   19.8050 O   0  0  0  0  0  0  0  0  0  0  0  0
   -3.1510  -25.0190   23.4720 O   0  0  0  0  0  0  0  0  0  0  0  0
   -3.5850  -25.8940   24.4420 S   0  0  0  0  0  0  0  0  0  0  0  0
   -2.7140  -25.9380   25.5140 O   0  0  0  0  0  0  0  0  0  0  0  0
   -4.9250  -25.8870   24.7000 O   0  0  0  0  0  0  0  0  0  0  0  0
   -3.2240  -27.0870   23.6140 O   0  0  0  0  0  0  0  0  0  0  0  0
   -3.5750  -28.2850   23.9730 N   0  0  0  0  0  0  0  0  0  0  0  0
   -2.7360  -29.3560   23.2270 C   0  0  2  0  0  0  0  0  0  0  0  0
   -1.3410  -29.3910   23.7680 C   0  0  0  0  0  0  0  0  0  0  0  0
   -0.5210  -28.2060   23.3010 C   0  0  0  0  0  0  0  0  0  0  0  0
   -2.5950  -29.3920   21.7120 C   0  0  0  0  0  0  0  0  0  0  0  0
   -1.8120  -28.2580   21.2610 N   0  0  0  0  0  0  0  0  0  0  0  0
   -2.3300  -27.3000   20.4020 C   0  0  0  0  0  0  0  0  0  0  0  0
   -1.6360  -26.3570   20.1640 O   0  0  0  0  0  0  0  0  0  0  0  0
   -0.4570  -28.1430   21.8090 C   0  0  2  0  0  0  0  0  0  0  0  0
    0.5430  -29.2270   21.4170 C   0  0  0  0  0  0  0  0  0  0  0  0
    0.1900  -30.2050   20.7950 O   0  0  0  0  0  0  0  0  0  0  0  0
    1.8040  -29.0630   21.7880 N   0  0  0  0  0  0  0  0  0  0  0  0
    2.5840  -30.1880   21.7060 N   0  0  0  0  0  0  0  0  0  0  0  0
    3.6540  -30.3020   20.9220 C   0  0  0  0  0  0  0  0  0  0  0  0
    3.7840  -29.6360   19.9240 O   0  0  0  0  0  0  0  0  0  0  0  0
    4.6760  -31.3170   21.3220 C   0  0  0  0  0  0  0  0  0  0  0  0
    5.0530  -32.5550   20.4760 C   0  0  0  0  0  0  0  0  0  0  0  0
    6.3830  -31.9310   20.1730 N   0  0  0  0  0  0  0  0  0  0  0  0
    6.1460  -30.8590   21.1970 C   0  0  0  0  0  0  0  0  0  0  0  0
  2  1  1  1  0  0  0
  2  5  1  0  0  0  0
  3  4  2  0  0  0  0
  3  2  1  0  0  0  0
  5  6  1  0  0  0  0
  6 18  1  0  0  0  0
  7  8  1  0  0  0  0
  8  9  1  0  0  0  0
  8 10  1  0  0  0  0
  8 11  1  0  0  0  0
 11 12  1  0  0  0  0
 13 12  1  6  0  0  0
 13 14  1  0  0  0  0
 13 16  1  0  0  0  0
 14 15  1  0  0  0  0
 15 20  1  0  0  0  0
 16 17  1  0  0  0  0
 17 18  1  0  0  0  0
 17 20  1  0  0  0  0
 18 19  2  0  0  0  0
 20 21  1  6  0  0  0
 21 22  2  0  0  0  0
 21 23  1  0  0  0  0
 23 24  1  0  0  0  0
 24 25  1  0  0  0  0
 25 26  2  0  0  0  0
 25 27  1  0  0  0  0
 27 28  1  0  0  0  0
 27 30  1  0  0  0  0
 28 29  1  0  0  0  0
 29 30  1  0  0  0  0
M  END
>  <HEADER>
    HYDROLASE/HYDROLASE INHIBITOR           11-DEC-15   5FAP              

>  <TITLE>
    CTX-M-15 IN COMPLEX WITH FPI-1602                                     

>  <COMPND>
    MOL_ID: 1;                                                            
   2 MOLECULE: BETA-LACTAMASE;                                            
   3 CHAIN: B, A;                                                         
   4 EC: 3.5.2.6;                                                         
   5 ENGINEERED: YES                                                      

>  <SOURCE>
    MOL_ID: 1;                                                            
   2 ORGANISM_SCIENTIFIC: ESCHERICHIA COLI;                               
   3 ORGANISM_TAXID: 562;                                                 
   4 GENE: BLAUOE-1, BLA, BLA CTX-M-15, BLA_1, BLA_2, BLA_3, BLACTX-M-15, 
   5 BLACTX-M15, CTX-M-15, ECONIH1_02760, ECONIH1_27135, ERS085368_04262, 
   6 ERS085370_01802, ERS085377_05268, ERS139214_01914, ERS139238_04648,  
   7 ERS139238_04652, ERS150880_04508, HUS2011_PI0012, PCTXM15_EC8_00003, 
   8 SK84_05077, SK86_03319;                                              
   9 EXPRESSION_SYSTEM: ESCHERICHIA COLI;                                 
  10 EXPRESSION_SYSTEM_TAXID: 562                                         

>  <KEYWDS>
    HYDROLASE-HYDROLASE INHIBITOR COMPLEX                                 

>  <EXPDTA>
    X-RAY DIFFRACTION                                                     

>  <AUTHOR>
    A.M.KING,D.T.KING,S.FRENCH,E.BROUILLETTE,A.ASLI,A.N.ALEXANDER,        
   2 M.VUCKOVIC,S.N.MAITI,T.R.PARR,E.D.BROWN,F.MALOUIN,N.C.J.STRYNADKA,   
   3 G.D.WRIGHT                                                           

>  <REVDAT>
   4   20-NOV-19 5FAP    1       REMARK                                   
   3   20-SEP-17 5FAP    1       REMARK                                   
   2   27-APR-16 5FAP    1       JRNL                                     
   1   20-JAN-16 5FAP    0                                                

>  <JRNL>
      AUTH   A.M.KING,D.T.KING,S.FRENCH,E.BROUILLETTE,A.ASLI,             
      AUTH 2 J.A.ALEXANDER,M.VUCKOVIC,S.N.MAITI,T.R.PARR,E.D.BROWN,       
      AUTH 3 F.MALOUIN,N.C.STRYNADKA,G.D.WRIGHT                           
      TITL   STRUCTURAL AND KINETIC CHARACTERIZATION OF                   
      TITL 2 DIAZABICYCLOOCTANES AS DUAL INHIBITORS OF BOTH               
      TITL 3 SERINE-BETA-LACTAMASES AND PENICILLIN-BINDING PROTEINS.      
      REF    ACS CHEM.BIOL.                V.  11   864 2016              
      REFN                   ESSN 1554-8937                               
      PMID   26731698                                                     
      DOI    10.1021/ACSCHEMBIO.5B00944                                   

>  <REMARK>
   2                                                                      
   2 RESOLUTION.    2.70 ANGSTROMS.                                       
   3                                                                      
   3 REFINEMENT.                                                          
   3   PROGRAM     : REFMAC 5.8.0071                                      
   3   AUTHORS     : MURSHUDOV,SKUBAK,LEBEDEV,PANNU,STEINER,              
   3               : NICHOLLS,WINN,LONG,VAGIN                             
   3                                                                      
   3    REFINEMENT TARGET : MAXIMUM LIKELIHOOD                            
   3                                                                      
   3  DATA USED IN REFINEMENT.                                            
   3   RESOLUTION RANGE HIGH (ANGSTROMS) : 2.70                           
   3   RESOLUTION RANGE LOW  (ANGSTROMS) : 30.97                          
   3   DATA CUTOFF            (SIGMA(F)) : NULL                           
   3   COMPLETENESS FOR RANGE        (%) : 95.3                           
   3   NUMBER OF REFLECTIONS             : 13713                          
   3                                                                      
   3  FIT TO DATA USED IN REFINEMENT.                                     
   3   CROSS-VALIDATION METHOD          : THROUGHOUT                      
   3   FREE R VALUE TEST SET SELECTION  : RANDOM                          
   3   R VALUE     (WORKING + TEST SET) : 0.189                           
   3   R VALUE            (WORKING SET) : 0.187                           
   3   FREE R VALUE                     : 0.227                           
   3   FREE R VALUE TEST SET SIZE   (%) : 5.300                           
   3   FREE R VALUE TEST SET COUNT      : 761                             
   3                                                                      
   3  FIT IN THE HIGHEST RESOLUTION BIN.                                  
   3   TOTAL NUMBER OF BINS USED           : 20                           
   3   BIN RESOLUTION RANGE HIGH       (A) : 2.70                         
   3   BIN RESOLUTION RANGE LOW        (A) : 2.77                         
   3   REFLECTION IN BIN     (WORKING SET) : 964                          
   3   BIN COMPLETENESS (WORKING+TEST) (%) : 92.25                        
   3   BIN R VALUE           (WORKING SET) : 0.2700                       
   3   BIN FREE R VALUE SET COUNT          : 59                           
   3   BIN FREE R VALUE                    : 0.3380                       
   3                                                                      
   3  NUMBER OF NON-HYDROGEN ATOMS USED IN REFINEMENT.                    
   3   PROTEIN ATOMS            : 3878                                    
   3   NUCLEIC ACID ATOMS       : 0                                       
   3   HETEROGEN ATOMS          : 48                                      
   3   SOLVENT ATOMS            : 85                                      
   3                                                                      
   3  B VALUES.                                                           
   3   FROM WILSON PLOT           (A**2) : NULL                           
   3   MEAN B VALUE      (OVERALL, A**2) : 27.48                          
   3   OVERALL ANISOTROPIC B VALUE.                                       
   3    B11 (A**2) : -0.36000                                             
   3    B22 (A**2) : 0.46000                                              
   3    B33 (A**2) : -0.15000                                             
   3    B12 (A**2) : 0.00000                                              
   3    B13 (A**2) : 0.13000                                              
   3    B23 (A**2) : 0.00000                                              
   3                                                                      
   3  ESTIMATED OVERALL COORDINATE ERROR.                                 
   3   ESU BASED ON R VALUE                            (A): NULL          
   3   ESU BASED ON FREE R VALUE                       (A): 0.343         
   3   ESU BASED ON MAXIMUM LIKELIHOOD                 (A): NULL          
   3   ESU FOR B VALUES BASED ON MAXIMUM LIKELIHOOD (A**2): NULL          
   3                                                                      
   3 CORRELATION COEFFICIENTS.                                            
   3   CORRELATION COEFFICIENT FO-FC      : 0.930                         
   3   CORRELATION COEFFICIENT FO-FC FREE : 0.889                         
   3                                                                      
   3  RMS DEVIATIONS FROM IDEAL VALUES        COUNT    RMS    WEIGHT      
   3   BOND LENGTHS REFINED ATOMS        (A):  3986 ; 0.010 ; 0.019       
   3   BOND LENGTHS OTHERS               (A):  3884 ; 0.000 ; 0.020       
   3   BOND ANGLES REFINED ATOMS   (DEGREES):  5410 ; 1.256 ; 1.974       
   3   BOND ANGLES OTHERS          (DEGREES):  8924 ; 3.879 ; 3.000       
   3   TORSION ANGLES, PERIOD 1    (DEGREES):   514 ; 5.694 ; 5.000       
   3   TORSION ANGLES, PERIOD 2    (DEGREES):   162 ;42.442 ;24.568       
   3   TORSION ANGLES, PERIOD 3    (DEGREES):   676 ;16.674 ;15.000       
   3   TORSION ANGLES, PERIOD 4    (DEGREES):    30 ;16.048 ;15.000       
   3   CHIRAL-CENTER RESTRAINTS       (A**3):   636 ; 0.092 ; 0.200       
   3   GENERAL PLANES REFINED ATOMS      (A):  4550 ; 0.013 ; 0.021       
   3   GENERAL PLANES OTHERS             (A):   848 ; 0.010 ; 0.020       
   3   NON-BONDED CONTACTS REFINED ATOMS (A):  NULL ;  NULL ;  NULL       
   3   NON-BONDED CONTACTS OTHERS        (A):  NULL ;  NULL ;  NULL       
   3   NON-BONDED TORSION REFINED ATOMS  (A):  NULL ;  NULL ;  NULL       
   3   NON-BONDED TORSION OTHERS         (A):  NULL ;  NULL ;  NULL       
   3   H-BOND (X...Y) REFINED ATOMS      (A):  NULL ;  NULL ;  NULL       
   3   H-BOND (X...Y) OTHERS             (A):  NULL ;  NULL ;  NULL       
   3   POTENTIAL METAL-ION REFINED ATOMS (A):  NULL ;  NULL ;  NULL       
   3   POTENTIAL METAL-ION OTHERS        (A):  NULL ;  NULL ;  NULL       
   3   SYMMETRY VDW REFINED ATOMS        (A):  NULL ;  NULL ;  NULL       
   3   SYMMETRY VDW OTHERS               (A):  NULL ;  NULL ;  NULL       
   3   SYMMETRY H-BOND REFINED ATOMS     (A):  NULL ;  NULL ;  NULL       
   3   SYMMETRY H-BOND OTHERS            (A):  NULL ;  NULL ;  NULL       
   3   SYMMETRY METAL-ION REFINED ATOMS  (A):  NULL ;  NULL ;  NULL       
   3   SYMMETRY METAL-ION OTHERS         (A):  NULL ;  NULL ;  NULL       
   3                                                                      
   3  ISOTROPIC THERMAL FACTOR RESTRAINTS.     COUNT   RMS    WEIGHT      
   3   MAIN-CHAIN BOND REFINED ATOMS  (A**2):  2068 ; 2.040 ; 2.608       
   3   MAIN-CHAIN BOND OTHER ATOMS    (A**2):  2067 ; 2.041 ; 2.608       
   3   MAIN-CHAIN ANGLE REFINED ATOMS (A**2):  2578 ; 3.182 ; 3.909       
   3   MAIN-CHAIN ANGLE OTHER ATOMS   (A**2):  2579 ; 3.181 ; 3.909       
   3   SIDE-CHAIN BOND REFINED ATOMS  (A**2):  1918 ; 2.674 ; 2.907       
   3   SIDE-CHAIN BOND OTHER ATOMS    (A**2):  1919 ; 2.673 ; 2.907       
   3   SIDE-CHAIN ANGLE REFINED ATOMS (A**2):  NULL ;  NULL ;  NULL       
   3   SIDE-CHAIN ANGLE OTHER ATOMS   (A**2):  2829 ; 4.297 ; 4.241       
   3   LONG RANGE B REFINED ATOMS     (A**2):  4126 ; 5.487 ;20.298       
   3   LONG RANGE B OTHER ATOMS       (A**2):  4122 ; 5.486 ;20.302       
   3                                                                      
   3 ANISOTROPIC THERMAL FACTOR RESTRAINTS.    COUNT   RMS   WEIGHT       
   3   RIGID-BOND RESTRAINTS          (A**2):  NULL ;  NULL ;  NULL       
   3   SPHERICITY; FREE ATOMS         (A**2):  NULL ;  NULL ;  NULL       
   3   SPHERICITY; BONDED ATOMS       (A**2):  NULL ;  NULL ;  NULL       
   3                                                                      
   3  NCS RESTRAINTS STATISTICS                                           
   3   NUMBER OF DIFFERENT NCS GROUPS : NULL                              
   3                                                                      
   3  TLS DETAILS                                                         
   3   NUMBER OF TLS GROUPS  : NULL                                       
   3                                                                      
   3  BULK SOLVENT MODELLING.                                             
   3   METHOD USED : MASK                                                 
   3   PARAMETERS FOR MASK CALCULATION                                    
   3   VDW PROBE RADIUS   : 1.20                                          
   3   ION PROBE RADIUS   : 0.80                                          
   3   SHRINKAGE RADIUS   : 0.80                                          
   3                                                                      
   3  OTHER REFINEMENT REMARKS: HYDROGENS HAVE BEEN ADDED IN THE RIDING   
   3   POSITIONS                                                          
   4                                                                      
   4 5FAP COMPLIES WITH FORMAT V. 3.30, 13-JUL-11                         
 100                                                                      
 100 THIS ENTRY HAS BEEN PROCESSED BY RCSB ON 15-DEC-15.                  
 100 THE DEPOSITION ID IS D_1000216268.                                   
 200                                                                      
 200 EXPERIMENTAL DETAILS                                                 
 200  EXPERIMENT TYPE                : X-RAY DIFFRACTION                  
 200  DATE OF DATA COLLECTION        : 15-JUL-14                          
 200  TEMPERATURE           (KELVIN) : 100                                
 200  PH                             : 6.5                                
 200  NUMBER OF CRYSTALS USED        : NULL                               
 200                                                                      
 200  SYNCHROTRON              (Y/N) : Y                                  
 200  RADIATION SOURCE               : CLSI                               
 200  BEAMLINE                       : 08ID-1                             
 200  X-RAY GENERATOR MODEL          : NULL                               
 200  MONOCHROMATIC OR LAUE    (M/L) : M                                  
 200  WAVELENGTH OR RANGE        (A) : 1.00                               
 200  MONOCHROMATOR                  : NULL                               
 200  OPTICS                         : NULL                               
 200                                                                      
 200  DETECTOR TYPE                  : CCD                                
 200  DETECTOR MANUFACTURER          : RAYONIX MX-300                     
 200  INTENSITY-INTEGRATION SOFTWARE : XIA2                               
 200  DATA SCALING SOFTWARE          : AIMLESS                            
 200                                                                      
 200  NUMBER OF UNIQUE REFLECTIONS   : 14478                              
 200  RESOLUTION RANGE HIGH      (A) : 2.700                              
 200  RESOLUTION RANGE LOW       (A) : 30.970                             
 200  REJECTION CRITERIA  (SIGMA(I)) : NULL                               
 200                                                                      
 200 OVERALL.                                                             
 200  COMPLETENESS FOR RANGE     (%) : 95.4                               
 200  DATA REDUNDANCY                : 2.500                              
 200  R MERGE                    (I) : NULL                               
 200  R SYM                      (I) : NULL                               
 200  <I/SIGMA(I)> FOR THE DATA SET  : 11.7000                            
 200                                                                      
 200 IN THE HIGHEST RESOLUTION SHELL.                                     
 200  HIGHEST RESOLUTION SHELL, RANGE HIGH (A) : NULL                     
 200  HIGHEST RESOLUTION SHELL, RANGE LOW  (A) : NULL                     
 200  COMPLETENESS FOR SHELL     (%) : NULL                               
 200  DATA REDUNDANCY IN SHELL       : NULL                               
 200  R MERGE FOR SHELL          (I) : NULL                               
 200  R SYM FOR SHELL            (I) : NULL                               
 200  <I/SIGMA(I)> FOR SHELL         : NULL                               
 200                                                                      
 200 DIFFRACTION PROTOCOL: SINGLE WAVELENGTH                              
 200 METHOD USED TO DETERMINE THE STRUCTURE: MOLECULAR REPLACEMENT        
 200 SOFTWARE USED: PHASER                                                
 200 STARTING MODEL: 4HBT                                                 
 200                                                                      
 200 REMARK: NULL                                                         
 280                                                                      
 280 CRYSTAL                                                              
 280 SOLVENT CONTENT, VS   (%): 50.81                                     
 280 MATTHEWS COEFFICIENT, VM (ANGSTROMS**3/DA): 2.50                     
 280                                                                      
 280 CRYSTALLIZATION CONDITIONS: 0.2M AMMONIUM SULFATE, 0.1M MES PH6.5,   
 280  30% PEG5K MONOMETHYL ETHER, VAPOR DIFFUSION, SITTING DROP,          
 280  TEMPERATURE 298K                                                    
 290                                                                      
 290 CRYSTALLOGRAPHIC SYMMETRY                                            
 290 SYMMETRY OPERATORS FOR SPACE GROUP: P 1 21 1                         
 290                                                                      
 290      SYMOP   SYMMETRY                                                
 290     NNNMMM   OPERATOR                                                
 290       1555   X,Y,Z                                                   
 290       2555   -X,Y+1/2,-Z                                             
 290                                                                      
 290     WHERE NNN -> OPERATOR NUMBER                                     
 290           MMM -> TRANSLATION VECTOR                                  
 290                                                                      
 290 CRYSTALLOGRAPHIC SYMMETRY TRANSFORMATIONS                            
 290 THE FOLLOWING TRANSFORMATIONS OPERATE ON THE ATOM/HETATM             
 290 RECORDS IN THIS ENTRY TO PRODUCE CRYSTALLOGRAPHICALLY                
 290 RELATED MOLECULES.                                                   
 290   SMTRY1   1  1.000000  0.000000  0.000000        0.00000            
 290   SMTRY2   1  0.000000  1.000000  0.000000        0.00000            
 290   SMTRY3   1  0.000000  0.000000  1.000000        0.00000            
 290   SMTRY1   2 -1.000000  0.000000  0.000000        0.00000            
 290   SMTRY2   2  0.000000  1.000000  0.000000       30.91500            
 290   SMTRY3   2  0.000000  0.000000 -1.000000        0.00000            
 290                                                                      
 290 REMARK: NULL                                                         
 300                                                                      
 300 BIOMOLECULE: 1, 2                                                    
 300 SEE REMARK 350 FOR THE AUTHOR PROVIDED AND/OR PROGRAM                
 300 GENERATED ASSEMBLY INFORMATION FOR THE STRUCTURE IN                  
 300 THIS ENTRY. THE REMARK MAY ALSO PROVIDE INFORMATION ON               
 300 BURIED SURFACE AREA.                                                 
 350                                                                      
 350 COORDINATES FOR A COMPLETE MULTIMER REPRESENTING THE KNOWN           
 350 BIOLOGICALLY SIGNIFICANT OLIGOMERIZATION STATE OF THE                
 350 MOLECULE CAN BE GENERATED BY APPLYING BIOMT TRANSFORMATIONS          
 350 GIVEN BELOW.  BOTH NON-CRYSTALLOGRAPHIC AND                          
 350 CRYSTALLOGRAPHIC OPERATIONS ARE GIVEN.                               
 350                                                                      
 350 BIOMOLECULE: 1                                                       
 350 AUTHOR DETERMINED BIOLOGICAL UNIT: MONOMERIC                         
 350 SOFTWARE DETERMINED QUATERNARY STRUCTURE: MONOMERIC                  
 350 SOFTWARE USED: PISA                                                  
 350 APPLY THE FOLLOWING TO CHAINS: B                                     
 350   BIOMT1   1  1.000000  0.000000  0.000000        0.00000            
 350   BIOMT2   1  0.000000  1.000000  0.000000        0.00000            
 350   BIOMT3   1  0.000000  0.000000  1.000000        0.00000            
 350                                                                      
 350 BIOMOLECULE: 2                                                       
 350 AUTHOR DETERMINED BIOLOGICAL UNIT: MONOMERIC                         
 350 SOFTWARE DETERMINED QUATERNARY STRUCTURE: MONOMERIC                  
 350 SOFTWARE USED: PISA                                                  
 350 APPLY THE FOLLOWING TO CHAINS: A                                     
 350   BIOMT1   1  1.000000  0.000000  0.000000        0.00000            
 350   BIOMT2   1  0.000000  1.000000  0.000000        0.00000            
 350   BIOMT3   1  0.000000  0.000000  1.000000        0.00000            
 465                                                                      
 465 MISSING RESIDUES                                                     
 465 THE FOLLOWING RESIDUES WERE NOT LOCATED IN THE                       
 465 EXPERIMENT. (M=MODEL NUMBER; RES=RESIDUE NAME; C=CHAIN               
 465 IDENTIFIER; SSSEQ=SEQUENCE NUMBER; I=INSERTION CODE.)                
 465                                                                      
 465   M RES C SSSEQI                                                     
 465     GLN B    26                                                      
 465     THR B    27                                                      
 465     ALA B    28                                                      
 465     GLY B   287                                                      
 465     LEU B   288                                                      
 465     GLN A    26                                                      
 465     THR A    27                                                      
 465     ALA A    28                                                      
 465     GLY A   287                                                      
 465     LEU A   288                                                      
 500                                                                      
 500 GEOMETRY AND STEREOCHEMISTRY                                         
 500 SUBTOPIC: CLOSE CONTACTS IN SAME ASYMMETRIC UNIT                     
 500                                                                      
 500 THE FOLLOWING ATOMS ARE IN CLOSE CONTACT.                            
 500                                                                      
 500  ATM1  RES C  SSEQI   ATM2  RES C  SSEQI           DISTANCE          
 500   OG   SER B    70     CAM  602 B   301              1.01            
 500   OG   SER B    70     OAN  602 B   301              1.83            
 500   OG   SER B    70     N    602 B   301              2.11            
 500   CB   SER A    70     CAM  602 A   301              2.13            
 500   OG   SER A    70     N    602 A   301              2.14            
 500   OG   SER A    70     OAN  602 A   301              2.19            
 500   CB   SER B    70     CAM  602 B   301              2.19            
 500                                                                      
 500 REMARK: NULL                                                         
 500                                                                      
 500 GEOMETRY AND STEREOCHEMISTRY                                         
 500 SUBTOPIC: TORSION ANGLES                                             
 500                                                                      
 500 TORSION ANGLES OUTSIDE THE EXPECTED RAMACHANDRAN REGIONS:            
 500 (M=MODEL NUMBER; RES=RESIDUE NAME; C=CHAIN IDENTIFIER;               
 500 SSEQ=SEQUENCE NUMBER; I=INSERTION CODE).                             
 500                                                                      
 500 STANDARD TABLE:                                                      
 500 FORMAT:(10X,I3,1X,A3,1X,A1,I4,A1,4X,F7.2,3X,F7.2)                    
 500                                                                      
 500 EXPECTED VALUES: GJ KLEYWEGT AND TA JONES (1996). PHI/PSI-           
 500 CHOLOGY: RAMACHANDRAN REVISITED. STRUCTURE 4, 1395 - 1400            
 500                                                                      
 500  M RES CSSEQI        PSI       PHI                                   
 500    CYS B  69     -139.15     60.56                                   
 500    SER B 220     -117.20   -104.43                                   
 500    CYS A  69     -132.60     60.83                                   
 500    ASN A  89       31.82    -99.51                                   
 500    VAL A 103     -144.51   -132.20                                   
 500    ASN A 106       63.60   -150.53                                   
 500    SER A 220     -117.27   -101.02                                   
 500    ASP A 245      125.81   -171.13                                   
 500                                                                      
 500 REMARK: NULL                                                         
 500                                                                      
 500 GEOMETRY AND STEREOCHEMISTRY                                         
 500 SUBTOPIC: NON-CIS, NON-TRANS                                         
 500                                                                      
 500 THE FOLLOWING PEPTIDE BONDS DEVIATE SIGNIFICANTLY FROM BOTH          
 500 CIS AND TRANS CONFORMATION.  CIS BONDS, IF ANY, ARE LISTED           
 500 ON CISPEP RECORDS.  TRANS IS DEFINED AS 180 +/- 30 AND               
 500 CIS IS DEFINED AS 0 +/- 30 DEGREES.                                  
 500                                 MODEL     OMEGA                      
 500 GLU B   87     PRO B   88                 -148.26                    
 500                                                                      
 500 REMARK: NULL                                                         
 800                                                                      
 800 SITE                                                                 
 800 SITE_IDENTIFIER: AC1                                                 
 800 EVIDENCE_CODE: SOFTWARE                                              
 800 SITE_DESCRIPTION: binding site for residue 602 B 301                 
 900                                                                      
 900 RELATED ENTRIES                                                      
 900 RELATED ID: 5FAO   RELATED DB: PDB                                   
 900 RELATED ID: 5FA7   RELATED DB: PDB                                   
 900 RELATED ID: 5FAQ   RELATED DB: PDB                                   
 900 RELATED ID: 5FAS   RELATED DB: PDB                                   
 900 RELATED ID: 5FAT   RELATED DB: PDB                                   

>  <DBREF>
 5FAP B   26   288  UNP    Q9EXV5   Q9EXV5_ECOLX    29    291             
 5FAP A   26   288  UNP    Q9EXV5   Q9EXV5_ECOLX    29    291             

>  <SEQRES>
   1 B  263  GLN THR ALA ASP VAL GLN GLN LYS LEU ALA GLU LEU GLU          
   2 B  263  ARG GLN SER GLY GLY ARG LEU GLY VAL ALA LEU ILE ASN          
   3 B  263  THR ALA ASP ASN SER GLN ILE LEU TYR ARG ALA ASP GLU          
   4 B  263  ARG PHE ALA MET CYS SER THR SER LYS VAL MET ALA ALA          
   5 B  263  ALA ALA VAL LEU LYS LYS SER GLU SER GLU PRO ASN LEU          
   6 B  263  LEU ASN GLN ARG VAL GLU ILE LYS LYS SER ASP LEU VAL          
   7 B  263  ASN TYR ASN PRO ILE ALA GLU LYS HIS VAL ASN GLY THR          
   8 B  263  MET SER LEU ALA GLU LEU SER ALA ALA ALA LEU GLN TYR          
   9 B  263  SER ASP ASN VAL ALA MET ASN LYS LEU ILE ALA HIS VAL          
  10 B  263  GLY GLY PRO ALA SER VAL THR ALA PHE ALA ARG GLN LEU          
  11 B  263  GLY ASP GLU THR PHE ARG LEU ASP ARG THR GLU PRO THR          
  12 B  263  LEU ASN THR ALA ILE PRO GLY ASP PRO ARG ASP THR THR          
  13 B  263  SER PRO ARG ALA MET ALA GLN THR LEU ARG ASN LEU THR          
  14 B  263  LEU GLY LYS ALA LEU GLY ASP SER GLN ARG ALA GLN LEU          
  15 B  263  VAL THR TRP MET LYS GLY ASN THR THR GLY ALA ALA SER          
  16 B  263  ILE GLN ALA GLY LEU PRO ALA SER TRP VAL VAL GLY ASP          
  17 B  263  LYS THR GLY SER GLY GLY TYR GLY THR THR ASN ASP ILE          
  18 B  263  ALA VAL ILE TRP PRO LYS ASP ARG ALA PRO LEU ILE LEU          
  19 B  263  VAL THR TYR PHE THR GLN PRO GLN PRO LYS ALA GLU SER          
  20 B  263  ARG ARG ASP VAL LEU ALA SER ALA ALA LYS ILE VAL THR          
  21 B  263  ASP GLY LEU                                                  
   1 A  263  GLN THR ALA ASP VAL GLN GLN LYS LEU ALA GLU LEU GLU          
   2 A  263  ARG GLN SER GLY GLY ARG LEU GLY VAL ALA LEU ILE ASN          
   3 A  263  THR ALA ASP ASN SER GLN ILE LEU TYR ARG ALA ASP GLU          
   4 A  263  ARG PHE ALA MET CYS SER THR SER LYS VAL MET ALA ALA          
   5 A  263  ALA ALA VAL LEU LYS LYS SER GLU SER GLU PRO ASN LEU          
   6 A  263  LEU ASN GLN ARG VAL GLU ILE LYS LYS SER ASP LEU VAL          
   7 A  263  ASN TYR ASN PRO ILE ALA GLU LYS HIS VAL ASN GLY THR          
   8 A  263  MET SER LEU ALA GLU LEU SER ALA ALA ALA LEU GLN TYR          
   9 A  263  SER ASP ASN VAL ALA MET ASN LYS LEU ILE ALA HIS VAL          
  10 A  263  GLY GLY PRO ALA SER VAL THR ALA PHE ALA ARG GLN LEU          
  11 A  263  GLY ASP GLU THR PHE ARG LEU ASP ARG THR GLU PRO THR          
  12 A  263  LEU ASN THR ALA ILE PRO GLY ASP PRO ARG ASP THR THR          
  13 A  263  SER PRO ARG ALA MET ALA GLN THR LEU ARG ASN LEU THR          
  14 A  263  LEU GLY LYS ALA LEU GLY ASP SER GLN ARG ALA GLN LEU          
  15 A  263  VAL THR TRP MET LYS GLY ASN THR THR GLY ALA ALA SER          
  16 A  263  ILE GLN ALA GLY LEU PRO ALA SER TRP VAL VAL GLY ASP          
  17 A  263  LYS THR GLY SER GLY GLY TYR GLY THR THR ASN ASP ILE          
  18 A  263  ALA VAL ILE TRP PRO LYS ASP ARG ALA PRO LEU ILE LEU          
  19 A  263  VAL THR TYR PHE THR GLN PRO GLN PRO LYS ALA GLU SER          
  20 A  263  ARG ARG ASP VAL LEU ALA SER ALA ALA LYS ILE VAL THR          
  21 A  263  ASP GLY LEU                                                  

>  <HET>
 602  B 301      24                                                       
 602  A 301      24                                                       

>  <HETNAM>
     602 [[(3~{R},6~{S})-6-[(AZETIDIN-3-YLCARBONYLAMINO)                  
   2 602  CARBAMOYL]-1-METHANOYL-PIPERIDIN-3-YL]AMINO] HYDROGEN           
   3 602  SULFATE                                                         

>  <FORMUL>
   3  602    2(C11 H19 N5 O7 S)                                           
   5  HOH   *85(H2 O)                                                     

>  <HELIX>
   1 AA1 ASP B   29  GLY B   42  1                                  14    
   2 AA2 CYS B   69  THR B   71  5                                   3    
   3 AA3 SER B   72  GLU B   87  1                                  16    
   4 AA4 ASN B   89  ASN B   92  5                                   4    
   5 AA5 LYS B   98  LEU B  102  5                                   5    
   6 AA6 ILE B  108  HIS B  112  5                                   5    
   7 AA7 LEU B  119  TYR B  129  1                                  11    
   8 AA8 ASP B  131  GLY B  143  1                                  13    
   9 AA9 GLY B  144  GLY B  156  1                                  13    
  10 AB1 PRO B  167  THR B  171  5                                   5    
  11 AB2 SER B  182  LEU B  195  1                                  14    
  12 AB3 GLY B  200  GLY B  213  1                                  14    
  13 AB4 SER B  220  LEU B  225  5                                   6    
  14 AB5 GLY B  239  GLY B  241  5                                   3    
  15 AB6 ARG B  273  ASP B  286  1                                  14    
  16 AB7 VAL A   30  GLY A   42  1                                  13    
  17 AB8 CYS A   69  THR A   71  5                                   3    
  18 AB9 SER A   72  SER A   84  1                                  13    
  19 AC1 GLU A   85  SER A   86  5                                   2    
  20 AC2 GLU A   87  LEU A   91  5                                   5    
  21 AC3 ILE A  108  VAL A  113  5                                   6    
  22 AC4 LEU A  119  TYR A  129  1                                  11    
  23 AC5 ASP A  131  GLY A  143  1                                  13    
  24 AC6 GLY A  144  LEU A  155  1                                  12    
  25 AC7 PRO A  167  THR A  171  5                                   5    
  26 AC8 SER A  182  LEU A  195  1                                  14    
  27 AC9 GLY A  200  GLY A  213  1                                  14    
  28 AD1 ILE A  221  LEU A  225  5                                   5    
  29 AD2 GLY A  239  GLY A  241  5                                   3    
  30 AD3 ARG A  273  ASP A  286  1                                  14    

>  <SHEET>
   1 AA1 5 GLN B  57  TYR B  60  0                                        
   2 AA1 5 ARG B  44  ASN B  51 -1  N  VAL B  47   O  TYR B  60           
   3 AA1 5 LEU B 257  THR B 264 -1  O  TYR B 262   N  GLY B  46           
   4 AA1 5 THR B 242  TRP B 250 -1  N  ALA B 247   O  LEU B 259           
   5 AA1 5 VAL B 230  GLY B 238 -1  N  GLY B 236   O  ASN B 244           
   1 AA2 2 PHE B  66  ALA B  67  0                                        
   2 AA2 2 THR B 180  THR B 181 -1  O  THR B 181   N  PHE B  66           
   1 AA3 2 ARG B  94  GLU B  96  0                                        
   2 AA3 2 THR B 116  SER B 118 -1  O  MET B 117   N  VAL B  95           
   1 AA4 5 GLN A  57  TYR A  60  0                                        
   2 AA4 5 ARG A  44  ASN A  51 -1  N  VAL A  47   O  TYR A  60           
   3 AA4 5 LEU A 257  THR A 264 -1  O  TYR A 262   N  GLY A  46           
   4 AA4 5 THR A 243  TRP A 250 -1  N  ILE A 249   O  LEU A 257           
   5 AA4 5 VAL A 230  SER A 237 -1  N  VAL A 230   O  TRP A 250           
   1 AA5 2 PHE A  66  ALA A  67  0                                        
   2 AA5 2 THR A 180  THR A 181 -1  O  THR A 181   N  PHE A  66           
   1 AA6 2 ARG A  94  ILE A  97  0                                        
   2 AA6 2 GLY A 115  SER A 118 -1  O  GLY A 115   N  ILE A  97           

>  <LINK>
       OG  SER A  70                 CAM 602 A 301     1555   1555  1.21  

>  <CISPEP>
   1 GLU B  166    PRO B  167          0         1.74                     
   2 GLU A  166    PRO A  167          0         7.20                     

>  <SITE>
   1 AC1  9 SER B  70  ASN B 104  SER B 130  ASN B 132                    
   2 AC1  9 PRO B 167  ASN B 170  THR B 235  GLY B 236                    
   3 AC1  9 SER B 237                                                     

>  <ORIGX1>
      1.000000  0.000000  0.000000        0.00000                         

>  <ORIGX2>
      0.000000  1.000000  0.000000        0.00000                         

>  <ORIGX3>
      0.000000  0.000000  1.000000        0.00000                         

>  <SCALE1>
      0.015843  0.000000  0.003944        0.00000                         

>  <SCALE2>
      0.000000  0.016173  0.000000        0.00000                         

>  <SCALE3>
      0.000000  0.000000  0.014103        0.00000                         

>  <MASTER>
      320    0    2   30   18    0    3    6 4011    2   49   42          

$$$$
