start_structures/Ligand_Substrate/Ligand_Complex_Stripped/6V8_7Q11.pdb
 OpenBabel08222315203D

 52 52  0  0  1  0  0  0  0  0999 V2000
    8.5940    0.2620   -8.4430 N   0  0  0  0  0  0  0  0  0  0  0  0
    7.3120    0.8750   -8.0990 C   0  0  2  0  0  0  0  0  0  0  0  0
    6.1220   -0.0630   -8.2440 C   0  0  0  0  0  0  0  0  0  0  0  0
    5.0260    0.3070   -7.8210 O   0  0  0  0  0  0  0  0  0  0  0  0
    7.0880    2.1440   -8.9170 C   0  0  0  0  0  0  0  0  0  0  0  0
    7.8720    3.2340   -8.4840 O   0  0  0  0  0  0  0  0  0  0  0  0
    8.9520    0.5710   -9.1610 H   0  0  0  0  0  0  0  0  0  0  0  0
    7.3510    1.1330   -7.1650 H   0  0  0  0  0  0  0  0  0  0  0  0
    7.3110    1.9550   -9.8410 H   0  0  0  0  0  0  0  0  0  0  0  0
    6.1530    2.3930   -8.8450 H   0  0  0  0  0  0  0  0  0  0  0  0
   14.5590    5.6690   -8.3570 N   0  0  0  0  0  0  0  0  0  0  0  0
   18.2290    5.9380   -5.4450 C   0  0  0  0  0  0  0  0  0  0  0  0
   16.6900    5.9990   -7.3230 C   0  0  0  0  0  0  0  0  0  0  0  0
   17.1570    7.9580   -6.0600 C   0  0  0  0  0  0  0  0  0  0  0  0
   18.0200    7.2770   -5.2500 C   0  0  0  0  0  0  0  0  0  0  0  0
   12.0880    6.3280   -7.7820 O   0  0  0  0  0  0  0  0  0  0  0  0
   12.2400    5.5260   -8.6970 C   0  0  0  0  0  0  0  0  0  0  0  0
   11.1880    4.7660   -9.2920 N   0  0  0  0  0  0  0  0  0  0  0  0
    9.7700    4.8010   -8.9510 C   0  0  2  0  0  0  0  0  0  0  0  0
    9.3240    3.2710   -8.6250 B   0  0  0  0  0  0  0  0  0  0  0  0
    9.8180    2.8440   -7.3700 O   0  0  0  0  0  0  0  0  0  0  0  0
    9.7260    2.4220   -9.6700 O   0  0  0  0  0  0  0  0  0  0  0  0
    9.0240    5.3940  -10.1530 C   0  0  0  0  0  0  0  0  0  0  0  0
    9.5230    6.7490  -10.6830 C   0  0  0  0  0  0  0  0  0  0  0  0
    9.5670    7.8230   -9.5990 C   0  0  0  0  0  0  0  0  0  0  0  0
    8.5910    7.2310  -11.7950 C   0  0  0  0  0  0  0  0  0  0  0  0
   13.6030    5.2090   -9.3040 C   0  0  0  0  0  0  0  0  0  0  0  0
   15.9240    5.3470   -8.4510 C   0  0  0  0  0  0  0  0  0  0  0  0
   16.3670    4.6600   -9.3260 O   0  0  0  0  0  0  0  0  0  0  0  0
   17.5620    5.3060   -6.4850 C   0  0  0  0  0  0  0  0  0  0  0  0
   17.8260    3.6030   -6.7430 Cl  0  0  0  0  0  0  0  0  0  0  0  0
   16.8740    9.6650   -5.7960 Cl  0  0  0  0  0  0  0  0  0  0  0  0
   16.4860    7.3500   -7.0860 C   0  0  0  0  0  0  0  0  0  0  0  0
   14.2930    6.1610   -7.7050 H   0  0  0  0  0  0  0  0  0  0  0  0
   18.8050    5.4620   -4.8920 H   0  0  0  0  0  0  0  0  0  0  0  0
   18.4650    7.7220   -4.5660 H   0  0  0  0  0  0  0  0  0  0  0  0
   11.4160    4.2270   -9.9220 H   0  0  0  0  0  0  0  0  0  0  0  0
    9.5690    5.3490   -8.1760 H   0  0  0  0  0  0  0  0  0  0  0  0
    9.1430    2.6830   -6.8750 H   0  0  0  0  0  0  0  0  0  0  0  0
    9.2040    2.5620  -10.3230 H   0  0  0  0  0  0  0  0  0  0  0  0
    9.0850    4.7550  -10.8800 H   0  0  0  0  0  0  0  0  0  0  0  0
    8.0950    5.5050   -9.8970 H   0  0  0  0  0  0  0  0  0  0  0  0
   10.4270    6.6110  -11.0080 H   0  0  0  0  0  0  0  0  0  0  0  0
    8.8610    7.6610   -8.9540 H   0  0  0  0  0  0  0  0  0  0  0  0
   10.4270    7.7960   -9.1510 H   0  0  0  0  0  0  0  0  0  0  0  0
    9.4410    8.6960  -10.0040 H   0  0  0  0  0  0  0  0  0  0  0  0
    8.5590    6.5660  -12.5010 H   0  0  0  0  0  0  0  0  0  0  0  0
    7.7000    7.3630  -11.4360 H   0  0  0  0  0  0  0  0  0  0  0  0
    8.9230    8.0680  -12.1550 H   0  0  0  0  0  0  0  0  0  0  0  0
   13.6980    4.2540   -9.4440 H   0  0  0  0  0  0  0  0  0  0  0  0
   13.7140    5.6720  -10.1490 H   0  0  0  0  0  0  0  0  0  0  0  0
   15.9000    7.8370   -7.6180 H   0  0  0  0  0  0  0  0  0  0  0  0
  1  2  1  0  0  0  0
  2  8  1  1  0  0  0
  3  2  1  0  0  0  0
  3  4  2  0  0  0  0
  5 10  1  0  0  0  0
  5  6  1  0  0  0  0
  5  2  1  0  0  0  0
  6 20  1  0  0  0  0
  7  1  1  0  0  0  0
  9  5  1  0  0  0  0
 11 27  1  0  0  0  0
 11 28  1  0  0  0  0
 11 34  1  0  0  0  0
 12 15  2  0  0  0  0
 12 30  1  0  0  0  0
 12 35  1  0  0  0  0
 13 28  1  0  0  0  0
 13 30  2  0  0  0  0
 13 33  1  0  0  0  0
 14 15  1  0  0  0  0
 14 32  1  0  0  0  0
 14 33  2  0  0  0  0
 15 36  1  0  0  0  0
 16 17  2  0  0  0  0
 17 18  1  0  0  0  0
 17 27  1  0  0  0  0
 18 19  1  0  0  0  0
 18 37  1  0  0  0  0
 19 20  1  0  0  0  0
 19 23  1  0  0  0  0
 19 38  1  1  0  0  0
 20 21  1  0  0  0  0
 20 22  1  0  0  0  0
 21 39  1  0  0  0  0
 22 40  1  0  0  0  0
 23 24  1  0  0  0  0
 23 41  1  0  0  0  0
 23 42  1  0  0  0  0
 24 25  1  0  0  0  0
 24 26  1  0  0  0  0
 24 43  1  0  0  0  0
 25 44  1  0  0  0  0
 25 45  1  0  0  0  0
 25 46  1  0  0  0  0
 26 47  1  0  0  0  0
 26 48  1  0  0  0  0
 26 49  1  0  0  0  0
 27 50  1  0  0  0  0
 27 51  1  0  0  0  0
 28 29  2  0  0  0  0
 30 31  1  0  0  0  0
 33 52  1  0  0  0  0
M  END
>  <HEADER>
    HYDROLASE                               17-OCT-21   7Q11              

>  <TITLE>
    CRYSTAL STRUCTURE OF CTX-M-14 IN COMPLEX WITH IXAZOMIB                

>  <COMPND>
    MOL_ID: 1;                                                            
   2 MOLECULE: BETA-LACTAMASE;                                            
   3 CHAIN: A;                                                            
   4 EC: 3.5.2.6;                                                         
   5 ENGINEERED: YES                                                      

>  <SOURCE>
    MOL_ID: 1;                                                            
   2 ORGANISM_SCIENTIFIC: KLEBSIELLA PNEUMONIAE;                          
   3 ORGANISM_TAXID: 573;                                                 
   4 GENE: CTX-M-14;                                                      
   5 EXPRESSION_SYSTEM: ESCHERICHIA COLI;                                 
   6 EXPRESSION_SYSTEM_TAXID: 562                                         

>  <KEYWDS>
    LACTAMASE, ANTIBIOTIC, RESISTENCE, HYDROLASE                          

>  <EXPDTA>
    X-RAY DIFFRACTION                                                     

>  <AUTHOR>
    N.WERNER,M.PERBANDT,W.HINRICHS,A.PRESTER,H.ROHDE,M.AEPFELBACHER,      
   2 C.BETZEL                                                             

>  <REVDAT>
   1   13-APR-22 7Q11    0                                                

>  <JRNL>
      AUTH   M.PERBANDT,N.WERNER,A.PRESTER,H.ROHDE,M.AEPFELBACHER,        
      AUTH 2 W.HINRICHS,C.BETZEL                                          
      TITL   STRUCTURAL BASIS TO REPURPOSE BORON-BASED PROTEASOME         
      TITL 2 INHIBITORS BORTEZOMIB AND IXAZOMIB AS BETA-LACTAMASE         
      TITL 3 INHIBITORS.                                                  
      REF    SCI REP                       V.  12  5510 2022              
      REFN                   ESSN 2045-2322                               
      PMID   35365689                                                     
      DOI    10.1038/S41598-022-09392-6                                   

>  <REMARK>
   2                                                                      
   2 RESOLUTION.    1.14 ANGSTROMS.                                       
   3                                                                      
   3 REFINEMENT.                                                          
   3   PROGRAM     : PHENIX 1.19.2_4158                                   
   3   AUTHORS     : PAUL ADAMS,PAVEL AFONINE,VINCENT CHEN,IAN            
   3               : DAVIS,KRESHNA GOPAL,RALF GROSSE-KUNSTLEVE,           
   3               : LI-WEI HUNG,ROBERT IMMORMINO,TOM IOERGER,            
   3               : AIRLIE MCCOY,ERIK MCKEE,NIGEL MORIARTY,              
   3               : REETAL PAI,RANDY READ,JANE RICHARDSON,               
   3               : DAVID RICHARDSON,TOD ROMO,JIM SACCHETTINI,           
   3               : NICHOLAS SAUTER,JACOB SMITH,LAURENT                  
   3               : STORONI,TOM TERWILLIGER,PETER ZWART                  
   3                                                                      
   3    REFINEMENT TARGET : GEOSTD + MONOMER LIBRARY + CDL V1.2           
   3                                                                      
   3  DATA USED IN REFINEMENT.                                            
   3   RESOLUTION RANGE HIGH (ANGSTROMS) : 1.14                           
   3   RESOLUTION RANGE LOW  (ANGSTROMS) : 43.59                          
   3   MIN(FOBS/SIGMA_FOBS)              : 1.370                          
   3   COMPLETENESS FOR RANGE        (%) : 99.9                           
   3   NUMBER OF REFLECTIONS             : 83237                          
   3                                                                      
   3  FIT TO DATA USED IN REFINEMENT.                                     
   3   R VALUE     (WORKING + TEST SET) : 0.132                           
   3   R VALUE            (WORKING SET) : 0.131                           
   3   FREE R VALUE                     : 0.143                           
   3   FREE R VALUE TEST SET SIZE   (%) : 2.520                           
   3   FREE R VALUE TEST SET COUNT      : 2101                            
   3                                                                      
   3  FIT TO DATA USED IN REFINEMENT (IN BINS).                           
   3   BIN  RESOLUTION RANGE  COMPL.    NWORK NFREE   RWORK  RFREE        
   3     1 43.5900 -  2.8100    1.00     5725   149  0.1492 0.1549        
   3     2  2.8100 -  2.2300    1.00     5509   142  0.1352 0.1259        
   3     3  2.2300 -  1.9500    1.00     5459   142  0.1186 0.1289        
   3     4  1.9500 -  1.7700    1.00     5446   140  0.1245 0.1428        
   3     5  1.7700 -  1.6400    1.00     5404   140  0.1285 0.1444        
   3     6  1.6400 -  1.5500    1.00     5401   140  0.1229 0.1342        
   3     7  1.5500 -  1.4700    1.00     5383   139  0.1201 0.1489        
   3     8  1.4700 -  1.4100    1.00     5392   140  0.1212 0.1282        
   3     9  1.4100 -  1.3500    1.00     5374   139  0.1278 0.1604        
   3    10  1.3500 -  1.3000    1.00     5338   138  0.1242 0.1435        
   3    11  1.3000 -  1.2600    1.00     5360   139  0.1235 0.1407        
   3    12  1.2600 -  1.2300    1.00     5353   139  0.1255 0.1610        
   3    13  1.2300 -  1.2000    1.00     5348   138  0.1287 0.1352        
   3    14  1.2000 -  1.1700    1.00     5355   139  0.1311 0.1522        
   3    15  1.1700 -  1.1400    0.99     5289   137  0.1344 0.1685        
   3                                                                      
   3  BULK SOLVENT MODELLING.                                             
   3   METHOD USED        : FLAT BULK SOLVENT MODEL                       
   3   SOLVENT RADIUS     : 1.11                                          
   3   SHRINKAGE RADIUS   : 0.90                                          
   3   K_SOL              : NULL                                          
   3   B_SOL              : NULL                                          
   3                                                                      
   3  ERROR ESTIMATES.                                                    
   3   COORDINATE ERROR (MAXIMUM-LIKELIHOOD BASED)     : 0.060            
   3   PHASE ERROR (DEGREES, MAXIMUM-LIKELIHOOD BASED) : 12.730           
   3                                                                      
   3  B VALUES.                                                           
   3   FROM WILSON PLOT           (A**2) : 8.08                           
   3   MEAN B VALUE      (OVERALL, A**2) : 11.17                          
   3   OVERALL ANISOTROPIC B VALUE.                                       
   3    B11 (A**2) : NULL                                                 
   3    B22 (A**2) : NULL                                                 
   3    B33 (A**2) : NULL                                                 
   3    B12 (A**2) : NULL                                                 
   3    B13 (A**2) : NULL                                                 
   3    B23 (A**2) : NULL                                                 
   3                                                                      
   3  TWINNING INFORMATION.                                               
   3   FRACTION: NULL                                                     
   3   OPERATOR: NULL                                                     
   3                                                                      
   3  DEVIATIONS FROM IDEAL VALUES.                                       
   3                 RMSD          COUNT                                  
   3   BOND      :  0.008           2158                                  
   3   ANGLE     :  1.187           2960                                  
   3   CHIRALITY :  0.083            342                                  
   3   PLANARITY :  0.015            386                                  
   3   DIHEDRAL  :  9.343            321                                  
   3                                                                      
   3  TLS DETAILS                                                         
   3   NUMBER OF TLS GROUPS  : NULL                                       
   3                                                                      
   3  NCS DETAILS                                                         
   3   NUMBER OF NCS GROUPS : NULL                                        
   3                                                                      
   3  OTHER REFINEMENT REMARKS: NULL                                      
   4                                                                      
   4 7Q11 COMPLIES WITH FORMAT V. 3.30, 13-JUL-11                         
 100                                                                      
 100 THIS ENTRY HAS BEEN PROCESSED BY PDBE ON 18-OCT-21.                  
 100 THE DEPOSITION ID IS D_1292118771.                                   
 200                                                                      
 200 EXPERIMENTAL DETAILS                                                 
 200  EXPERIMENT TYPE                : X-RAY DIFFRACTION                  
 200  DATE OF DATA COLLECTION        : 02-JUN-20                          
 200  TEMPERATURE           (KELVIN) : 100                                
 200  PH                             : 4.5                                
 200  NUMBER OF CRYSTALS USED        : 1                                  
 200                                                                      
 200  SYNCHROTRON              (Y/N) : Y                                  
 200  RADIATION SOURCE               : PETRA III, DESY                    
 200  BEAMLINE                       : P11                                
 200  X-RAY GENERATOR MODEL          : NULL                               
 200  MONOCHROMATIC OR LAUE    (M/L) : M                                  
 200  WAVELENGTH OR RANGE        (A) : 1.033                              
 200  MONOCHROMATOR                  : NULL                               
 200  OPTICS                         : NULL                               
 200                                                                      
 200  DETECTOR TYPE                  : PIXEL                              
 200  DETECTOR MANUFACTURER          : DECTRIS PILATUS 6M                 
 200  INTENSITY-INTEGRATION SOFTWARE : XDS                                
 200  DATA SCALING SOFTWARE          : XDS                                
 200                                                                      
 200  NUMBER OF UNIQUE REFLECTIONS   : 83198                              
 200  RESOLUTION RANGE HIGH      (A) : 1.140                              
 200  RESOLUTION RANGE LOW       (A) : 37.460                             
 200  REJECTION CRITERIA  (SIGMA(I)) : NULL                               
 200                                                                      
 200 OVERALL.                                                             
 200  COMPLETENESS FOR RANGE     (%) : 100.0                              
 200  DATA REDUNDANCY                : 12.40                              
 200  R MERGE                    (I) : NULL                               
 200  R SYM                      (I) : NULL                               
 200  <I/SIGMA(I)> FOR THE DATA SET  : 29.0100                            
 200                                                                      
 200 IN THE HIGHEST RESOLUTION SHELL.                                     
 200  HIGHEST RESOLUTION SHELL, RANGE HIGH (A) : 1.14                     
 200  HIGHEST RESOLUTION SHELL, RANGE LOW  (A) : 1.18                     
 200  COMPLETENESS FOR SHELL     (%) : NULL                               
 200  DATA REDUNDANCY IN SHELL       : NULL                               
 200  R MERGE FOR SHELL          (I) : NULL                               
 200  R SYM FOR SHELL            (I) : NULL                               
 200  <I/SIGMA(I)> FOR SHELL         : 8.060                              
 200                                                                      
 200 DIFFRACTION PROTOCOL: SINGLE WAVELENGTH                              
 200 METHOD USED TO DETERMINE THE STRUCTURE: MOLECULAR REPLACEMENT        
 200 SOFTWARE USED: PHASER                                                
 200 STARTING MODEL: 6GTH                                                 
 200                                                                      
 200 REMARK: NULL                                                         
 280                                                                      
 280 CRYSTAL                                                              
 280 SOLVENT CONTENT, VS   (%): 39.18                                     
 280 MATTHEWS COEFFICIENT, VM (ANGSTROMS**3/DA): 2.02                     
 280                                                                      
 280 CRYSTALLIZATION CONDITIONS: 30 % PEG8000, 0.2 M LITHIUM SULFATE,     
 280  0.1 M SODIUM ACETATE, PH 4.5, VAPOR DIFFUSION, SITTING DROP,        
 280  TEMPERATURE 291K                                                    
 290                                                                      
 290 CRYSTALLOGRAPHIC SYMMETRY                                            
 290 SYMMETRY OPERATORS FOR SPACE GROUP: P 21 21 21                       
 290                                                                      
 290      SYMOP   SYMMETRY                                                
 290     NNNMMM   OPERATOR                                                
 290       1555   X,Y,Z                                                   
 290       2555   -X+1/2,-Y,Z+1/2                                         
 290       3555   -X,Y+1/2,-Z+1/2                                         
 290       4555   X+1/2,-Y+1/2,-Z                                         
 290                                                                      
 290     WHERE NNN -> OPERATOR NUMBER                                     
 290           MMM -> TRANSLATION VECTOR                                  
 290                                                                      
 290 CRYSTALLOGRAPHIC SYMMETRY TRANSFORMATIONS                            
 290 THE FOLLOWING TRANSFORMATIONS OPERATE ON THE ATOM/HETATM             
 290 RECORDS IN THIS ENTRY TO PRODUCE CRYSTALLOGRAPHICALLY                
 290 RELATED MOLECULES.                                                   
 290   SMTRY1   1  1.000000  0.000000  0.000000        0.00000            
 290   SMTRY2   1  0.000000  1.000000  0.000000        0.00000            
 290   SMTRY3   1  0.000000  0.000000  1.000000        0.00000            
 290   SMTRY1   2 -1.000000  0.000000  0.000000       20.74250            
 290   SMTRY2   2  0.000000 -1.000000  0.000000        0.00000            
 290   SMTRY3   2  0.000000  0.000000  1.000000       43.59350            
 290   SMTRY1   3 -1.000000  0.000000  0.000000        0.00000            
 290   SMTRY2   3  0.000000  1.000000  0.000000       31.18600            
 290   SMTRY3   3  0.000000  0.000000 -1.000000       43.59350            
 290   SMTRY1   4  1.000000  0.000000  0.000000       20.74250            
 290   SMTRY2   4  0.000000 -1.000000  0.000000       31.18600            
 290   SMTRY3   4  0.000000  0.000000 -1.000000        0.00000            
 290                                                                      
 290 REMARK: NULL                                                         
 300                                                                      
 300 BIOMOLECULE: 1                                                       
 300 SEE REMARK 350 FOR THE AUTHOR PROVIDED AND/OR PROGRAM                
 300 GENERATED ASSEMBLY INFORMATION FOR THE STRUCTURE IN                  
 300 THIS ENTRY. THE REMARK MAY ALSO PROVIDE INFORMATION ON               
 300 BURIED SURFACE AREA.                                                 
 350                                                                      
 350 COORDINATES FOR A COMPLETE MULTIMER REPRESENTING THE KNOWN           
 350 BIOLOGICALLY SIGNIFICANT OLIGOMERIZATION STATE OF THE                
 350 MOLECULE CAN BE GENERATED BY APPLYING BIOMT TRANSFORMATIONS          
 350 GIVEN BELOW.  BOTH NON-CRYSTALLOGRAPHIC AND                          
 350 CRYSTALLOGRAPHIC OPERATIONS ARE GIVEN.                               
 350                                                                      
 350 BIOMOLECULE: 1                                                       
 350 AUTHOR DETERMINED BIOLOGICAL UNIT: MONOMERIC                         
 350 APPLY THE FOLLOWING TO CHAINS: A                                     
 350   BIOMT1   1  1.000000  0.000000  0.000000        0.00000            
 350   BIOMT2   1  0.000000  1.000000  0.000000        0.00000            
 350   BIOMT3   1  0.000000  0.000000  1.000000        0.00000            
 480                                                                      
 480 ZERO OCCUPANCY ATOM                                                  
 480 THE FOLLOWING RESIDUES HAVE ATOMS MODELED WITH ZERO                  
 480 OCCUPANCY. THE LOCATION AND PROPERTIES OF THESE ATOMS                
 480 MAY NOT BE RELIABLE. (M=MODEL NUMBER; RES=RESIDUE NAME;              
 480 C=CHAIN IDENTIFIER; SSEQ=SEQUENCE NUMBER; I=INSERTION CODE):         
 480   M RES C SSEQI ATOMS                                                
 480     GLN A  253   CG   CD   OE1  NE2                                  
 500                                                                      
 500 GEOMETRY AND STEREOCHEMISTRY                                         
 500 SUBTOPIC: CLOSE CONTACTS IN SAME ASYMMETRIC UNIT                     
 500                                                                      
 500 THE FOLLOWING ATOMS ARE IN CLOSE CONTACT.                            
 500                                                                      
 500  ATM1  RES C  SSEQI   ATM2  RES C  SSEQI           DISTANCE          
 500   HG   SER A   273     O    HOH A   402              1.58            
 500   O    HOH A   696     O    HOH A   747              1.62            
 500   O    HOH A   733     O    HOH A   745              1.80            
 500   O    HOH A   449     O    HOH A   669              1.85            
 500   OE2  GLU A   158     O    HOH A   401              1.87            
 500   O    HOH A   684     O    HOH A   707              1.88            
 500   O    HOH A   657     O    HOH A   705              1.92            
 500   OG   SER A   273     O    HOH A   402              1.93            
 500   O    HOH A   670     O    HOH A   733              1.93            
 500   O    HOH A   635     O    HOH A   637              1.94            
 500   O    HOH A   465     O    HOH A   663              1.94            
 500   O    HOH A   524     O    HOH A   738              1.94            
 500   O    HOH A   608     O    HOH A   650              1.98            
 500   O    HOH A   431     O    HOH A   541              2.06            
 500   O    HOH A   420     O    HOH A   628              2.07            
 500   O    HOH A   550     O    HOH A   669              2.08            
 500   O    HOH A   570     O    HOH A   661              2.14            
 500   O    THR A   227     O    HOH A   403              2.14            
 500   O    HOH A   717     O    HOH A   770              2.16            
 500   NZ   LYS A   111     O    HOH A   404              2.18            
 500                                                                      
 500 REMARK: NULL                                                         
 500                                                                      
 500 GEOMETRY AND STEREOCHEMISTRY                                         
 500 SUBTOPIC: CLOSE CONTACTS                                             
 500                                                                      
 500 THE FOLLOWING ATOMS THAT ARE RELATED BY CRYSTALLOGRAPHIC             
 500 SYMMETRY ARE IN CLOSE CONTACT.  AN ATOM LOCATED WITHIN 0.15          
 500 ANGSTROMS OF A SYMMETRY RELATED ATOM IS ASSUMED TO BE ON A           
 500 SPECIAL POSITION AND IS, THEREFORE, LISTED IN REMARK 375             
 500 INSTEAD OF REMARK 500.  ATOMS WITH NON-BLANK ALTERNATE               
 500 LOCATION INDICATORS ARE NOT INCLUDED IN THE CALCULATIONS.            
 500                                                                      
 500 DISTANCE CUTOFF:                                                     
 500 2.2 ANGSTROMS FOR CONTACTS NOT INVOLVING HYDROGEN ATOMS              
 500 1.6 ANGSTROMS FOR CONTACTS INVOLVING HYDROGEN ATOMS                  
 500                                                                      
 500  ATM1  RES C  SSEQI   ATM2  RES C  SSEQI  SSYMOP   DISTANCE          
 500   O    HOH A   731     O    HOH A   747     3544     1.88            
 500   O    HOH A   663     O    HOH A   730     3544     2.01            
 500   O    HOH A   408     O    HOH A   422     3554     2.04            
 500   O    HOH A   632     O    HOH A   656     2555     2.14            
 500   O    HOH A   642     O    HOH A   780     4545     2.16            
 500   O    HOH A   548     O    HOH A   642     4445     2.17            
 500                                                                      
 500 REMARK: NULL                                                         
 500                                                                      
 500 GEOMETRY AND STEREOCHEMISTRY                                         
 500 SUBTOPIC: TORSION ANGLES                                             
 500                                                                      
 500 TORSION ANGLES OUTSIDE THE EXPECTED RAMACHANDRAN REGIONS:            
 500 (M=MODEL NUMBER; RES=RESIDUE NAME; C=CHAIN IDENTIFIER;               
 500 SSEQ=SEQUENCE NUMBER; I=INSERTION CODE).                             
 500                                                                      
 500 STANDARD TABLE:                                                      
 500 FORMAT:(10X,I3,1X,A3,1X,A1,I4,A1,4X,F7.2,3X,F7.2)                    
 500                                                                      
 500 EXPECTED VALUES: GJ KLEYWEGT AND TA JONES (1996). PHI/PSI-           
 500 CHOLOGY: RAMACHANDRAN REVISITED. STRUCTURE 4, 1395 - 1400            
 500                                                                      
 500  M RES CSSEQI        PSI       PHI                                   
 500    CYS A  69     -140.50     50.38                                   
 500    VAL A 103     -137.27   -115.65                                   
 500    SER A 220     -129.18   -104.95                                   
 500                                                                      
 500 REMARK: NULL                                                         
 500                                                                      
 500 GEOMETRY AND STEREOCHEMISTRY                                         
 500 SUBTOPIC: PLANAR GROUPS                                              
 500                                                                      
 500 PLANAR GROUPS IN THE FOLLOWING RESIDUES HAVE A TOTAL                 
 500 RMS DISTANCE OF ALL ATOMS FROM THE BEST-FIT PLANE                    
 500 BY MORE THAN AN EXPECTED VALUE OF 6*RMSD, WITH AN                    
 500 RMSD 0.02 ANGSTROMS, OR AT LEAST ONE ATOM HAS                        
 500 AN RMSD GREATER THAN THIS VALUE                                      
 500 (M=MODEL NUMBER; RES=RESIDUE NAME; C=CHAIN IDENTIFIER;               
 500 SSEQ=SEQUENCE NUMBER; I=INSERTION CODE).                             
 500                                                                      
 500  M RES CSSEQI        RMS     TYPE                                    
 500    ARG A 153         0.08    SIDE CHAIN                              
 500                                                                      
 500 REMARK: NULL                                                         
 525                                                                      
 525 SOLVENT                                                              
 525                                                                      
 525 THE SOLVENT MOLECULES HAVE CHAIN IDENTIFIERS THAT                    
 525 INDICATE THE POLYMER CHAIN WITH WHICH THEY ARE MOST                  
 525 CLOSELY ASSOCIATED. THE REMARK LISTS ALL THE SOLVENT                 
 525 MOLECULES WHICH ARE MORE THAN 5A AWAY FROM THE                       
 525 NEAREST POLYMER CHAIN (M = MODEL NUMBER;                             
 525 RES=RESIDUE NAME; C=CHAIN IDENTIFIER; SSEQ=SEQUENCE                  
 525 NUMBER; I=INSERTION CODE):                                           
 525                                                                      
 525  M RES CSSEQI                                                        
 525    HOH A 792        DISTANCE =  7.36 ANGSTROMS                       
 900                                                                      
 900 RELATED ENTRIES                                                      
 900 RELATED ID: 7Q0Y   RELATED DB: PDB                                   
 900 7Q0Y CONTAINS THE SAME PROTEIN COMPLEXED WITH BORTEZOMIB             
 900 RELATED ID: 7Q0Z   RELATED DB: PDB                                   
 900 7Q0Z CONTAINS THE SAME PROTEIN                                       

>  <DBREF>
 7Q11 A   26   288  UNP    D2D9A0   D2D9A0_KLEPN    22    282             

>  <SEQADV>
 7Q11 GLU A   25  UNP  D2D9A0              EXPRESSION TAG                 

>  <SEQRES>
   1 A  262  GLU THR SER ALA VAL GLN GLN LYS LEU ALA ALA LEU GLU          
   2 A  262  LYS SER SER GLY GLY ARG LEU GLY VAL ALA LEU ILE ASP          
   3 A  262  THR ALA ASP ASN THR GLN VAL LEU TYR ARG GLY ASP GLU          
   4 A  262  ARG PHE PRO MET CYS SER THR SER LYS VAL MET ALA ALA          
   5 A  262  ALA ALA VAL LEU LYS GLN SER GLU THR GLN LYS GLN LEU          
   6 A  262  LEU ASN GLN PRO VAL GLU ILE LYS PRO ALA ASP LEU VAL          
   7 A  262  ASN TYR ASN PRO ILE ALA GLU LYS HIS VAL ASN GLY THR          
   8 A  262  MET THR LEU ALA GLU LEU SER ALA ALA ALA LEU GLN TYR          
   9 A  262  SER ASP ASN THR ALA MET ASN LYS LEU ILE ALA GLN LEU          
  10 A  262  GLY GLY PRO GLY GLY VAL THR ALA PHE ALA ARG ALA ILE          
  11 A  262  GLY ASP GLU THR PHE ARG LEU ASP ARG THR GLU PRO THR          
  12 A  262  LEU ASN THR ALA ILE PRO GLY ASP PRO ARG ASP THR THR          
  13 A  262  THR PRO ARG ALA MET ALA GLN THR LEU ARG GLN LEU THR          
  14 A  262  LEU GLY HIS ALA LEU GLY GLU THR GLN ARG ALA GLN LEU          
  15 A  262  VAL THR TRP LEU LYS GLY ASN THR THR GLY ALA ALA SER          
  16 A  262  ILE ARG ALA GLY LEU PRO THR SER TRP THR VAL GLY ASP          
  17 A  262  LYS THR GLY SER GLY ASP TYR GLY THR THR ASN ASP ILE          
  18 A  262  ALA VAL ILE TRP PRO GLN GLY ARG ALA PRO LEU VAL LEU          
  19 A  262  VAL THR TYR PHE THR GLN PRO GLN GLN ASN ALA GLU SER          
  20 A  262  ARG ARG ASP VAL LEU ALA SER ALA ALA ARG ILE ILE ALA          
  21 A  262  GLU GLY                                                      

>  <HET>
 DMS  A 301      10                                                       
 DMS  A 302      10                                                       
 DMS  A 303      10                                                       
 DMS  A 304      10                                                       
 6V8  A 305      42                                                       
  CL  A 306       1                                                       
 SO4  A 307       5                                                       
 SO4  A 308       5                                                       
 SO4  A 309       5                                                       
 SO4  A 310       5                                                       
 SO4  A 311       5                                                       
 SO4  A 312       5                                                       

>  <HETNAM>
     DMS DIMETHYL SULFOXIDE                                               
     6V8 [(1~{R})-1-[2-[[2,5-BIS(CHLORANYL)                               
   2 6V8  PHENYL]CARBONYLAMINO]ETHANOYLAMINO]-3-METHYL-                   
   3 6V8  BUTYL]BORONIC ACID                                              
      CL CHLORIDE ION                                                     
     SO4 SULFATE ION                                                      

>  <FORMUL>
   2  DMS    4(C2 H6 O S)                                                 
   6  6V8    C14 H19 B CL2 N2 O4                                          
   7   CL    CL 1-                                                        
   8  SO4    6(O4 S 2-)                                                   
  14  HOH   *392(H2 O)                                                    

>  <HELIX>
   1 AA1 SER A   27  GLY A   41  1                                  15    
   2 AA2 CYS A   69  THR A   71  5                                   3    
   3 AA3 SER A   72  GLU A   85  1                                  14    
   4 AA4 GLN A   89  ASN A   92  5                                   4    
   5 AA5 LYS A   98  LEU A  102  5                                   5    
   6 AA6 ILE A  108  VAL A  113  5                                   6    
   7 AA7 LEU A  119  SER A  130  1                                  12    
   8 AA8 ASP A  131  LEU A  142  1                                  12    
   9 AA9 GLY A  144  ILE A  155  1                                  12    
  10 AB1 PRO A  167  THR A  171  5                                   5    
  11 AB2 THR A  182  LEU A  195  1                                  14    
  12 AB3 GLY A  200  GLY A  213  1                                  14    
  13 AB4 SER A  220  LEU A  225  5                                   6    
  14 AB5 ARG A  274  GLU A  287  1                                  14    

>  <SHEET>
   1 AA1 5 GLN A  56  TYR A  60  0                                        
   2 AA1 5 ARG A  43  ASP A  50 -1  N  VAL A  46   O  TYR A  60           
   3 AA1 5 LEU A 258  THR A 265 -1  O  TYR A 263   N  GLY A  45           
   4 AA1 5 THR A 243  TRP A 251 -1  N  ILE A 250   O  LEU A 258           
   5 AA1 5 THR A 230  GLY A 238 -1  N  THR A 230   O  TRP A 251           
   1 AA2 2 PHE A  66  PRO A  67  0                                        
   2 AA2 2 THR A 180  THR A 181 -1  O  THR A 181   N  PHE A  66           
   1 AA3 2 PRO A  94  ILE A  97  0                                        
   2 AA3 2 GLY A 115  THR A 118 -1  O  GLY A 115   N  ILE A  97           

>  <LINK>
       OG  SER A  70                 B26 6V8 A 305     1555   1555  1.46  

>  <CISPEP>
   1 GLU A  166    PRO A  167          0         6.93                     

>  <ORIGX1>
      1.000000  0.000000  0.000000        0.00000                         

>  <ORIGX2>
      0.000000  1.000000  0.000000        0.00000                         

>  <ORIGX3>
      0.000000  0.000000  1.000000        0.00000                         

>  <SCALE1>
      0.024105  0.000000  0.000000        0.00000                         

>  <SCALE2>
      0.000000  0.016033  0.000000        0.00000                         

>  <SCALE3>
      0.000000  0.000000  0.011470        0.00000                         

>  <ANISOU>
  698  N   SER A  70      740    668    592     62    -81    -84       N  
  699  CA  SER A  70      674    663    691    104      4    -27       C  
  700  C   SER A  70      769    679    527     31    -22     13       C  
  701  O   SER A  70      584    689    686     82    -12      7       O  
  702  CB  SER A  70      731    552    863      8    -62    -16       C  
  703  OG  SER A  70      701    826    982    -14    114   -186       O  

>  <MASTER>
      318    0   12   14    9    0    0    6 2418    1  113   21          

$$$$
