start_structures/Ligand_Substrate/Ligand_Complex_Stripped/6YV_5LL7.pdb
 OpenBabel08222315203D

 20 20  0  0  1  0  0  0  0  0999 V2000
    5.4850   70.8940    6.6500 N   0  0  0  0  0  0  0  0  0  0  0  0
    4.7310   69.6510    6.8060 C   0  0  2  0  0  0  0  0  0  0  0  0
    4.3530   69.3540    8.2460 C   0  0  0  0  0  0  0  0  0  0  0  0
    3.6060   68.4000    8.4780 O   0  0  0  0  0  0  0  0  0  0  0  0
    5.5270   68.4520    6.3040 C   0  0  0  0  0  0  0  0  0  0  0  0
    5.5210   68.3900    4.8910 O   0  0  0  0  0  0  0  0  0  0  0  0
    6.9670   68.9990    1.4010 C   0  0  0  0  0  0  0  0  0  0  0  0
   10.7910   66.9460    6.9360 O   0  0  0  0  0  0  0  0  0  0  0  0
    9.6920   66.6840    6.4320 C   0  0  0  0  0  0  0  0  0  0  0  0
    8.7040   66.1550    7.0580 O   0  0  0  0  0  0  0  0  0  0  0  0
    9.4560   67.0620    4.9570 C   0  0  0  0  0  0  0  0  0  0  0  0
    8.3150   67.1920    4.4410 C   0  0  0  0  0  0  0  0  0  0  0  0
    8.0610   67.5980    3.0490 C   0  0  0  0  0  0  0  0  0  0  0  0
    8.6890   66.9110    1.9890 C   0  0  0  0  0  0  0  0  0  0  0  0
    8.4570   67.2680    0.6620 C   0  0  0  0  0  0  0  0  0  0  0  0
    7.5980   68.3130    0.3690 C   0  0  0  0  0  0  0  0  0  0  0  0
    7.1860   68.6680    2.7470 C   0  0  0  0  0  0  0  0  0  0  0  0
    6.4720   69.4980    3.8650 B   0  0  0  0  0  0  0  0  0  0  0  0
    5.4360   70.3440    3.6200 O   0  0  0  0  0  0  0  0  0  0  0  0
    7.3790   70.0090    4.8050 O   0  0  0  0  0  0  0  0  0  0  0  0
  2  1  1  1  0  0  0
  2  3  1  0  0  0  0
  3  4  2  0  0  0  0
  5  2  1  0  0  0  0
  6  5  1  0  0  0  0
  7 16  2  0  0  0  0
  7 17  1  0  0  0  0
  8  9  2  0  0  0  0
  9 10  1  0  0  0  0
  9 11  1  0  0  0  0
 11 12  2  0  0  0  0
 12 13  1  0  0  0  0
 13 14  1  0  0  0  0
 13 17  2  0  0  0  0
 14 15  2  0  0  0  0
 15 16  1  0  0  0  0
 17 18  1  0  0  0  0
 18 19  1  0  0  0  0
 18 20  1  0  0  0  0
 18  6  1  0  0  0  0
M  END
>  <HEADER>
    HYDROLASE                               26-JUL-16   5LL7              

>  <TITLE>
    CRYSTAL STRUCTURE OF KPC-2 CARBAPENEMASE IN COMPLEX WITH A PHENYL     
   2 BORONIC INHIBITOR.                                                   

>  <COMPND>
    MOL_ID: 1;                                                            
   2 MOLECULE: BETA-LACTAMASE;                                            
   3 CHAIN: A;                                                            
   4 SYNONYM: KPC-2 CARBAPENEMASE;                                        
   5 EC: 3.5.2.6;                                                         
   6 ENGINEERED: YES                                                      

>  <SOURCE>
    MOL_ID: 1;                                                            
   2 ORGANISM_SCIENTIFIC: ESCHERICHIA COLI;                               
   3 ORGANISM_TAXID: 562;                                                 
   4 GENE: BLAKPC-18;                                                     
   5 EXPRESSION_SYSTEM: ESCHERICHIA COLI BL21(DE3);                       
   6 EXPRESSION_SYSTEM_TAXID: 469008                                      

>  <KEYWDS>
    CARBAPENEMASE, BETA-LACTAMASE, PHENYL BORONIC INHIBITOR, HYDROLASE    

>  <EXPDTA>
    X-RAY DIFFRACTION                                                     

>  <AUTHOR>
    M.VICARIO,G.CELENZA,P.BELLIO,M.G.PERILLI,D.TONDI,L.CENDRON            

>  <REVDAT>
   2   05-JUN-19 5LL7    1       JRNL   REMARK                            
   1   21-FEB-18 5LL7    0                                                

>  <JRNL>
      AUTH   G.CELENZA,M.VICARIO,P.BELLIO,P.LINCIANO,M.PERILLI,A.OLIVER,  
      AUTH 2 J.BLAZQUEZ,L.CENDRON,D.TONDI                                 
      TITL   PHENYLBORONIC ACID DERIVATIVES AS VALIDATED LEADS ACTIVE IN  
      TITL 2 CLINICAL STRAINS OVEREXPRESSING KPC-2: A STEP AGAINST        
      TITL 3 BACTERIAL RESISTANCE.                                        
      REF    CHEMMEDCHEM                   V.  13   713 2018              
      REFN                   ESSN 1860-7187                               
      PMID   29356380                                                     
      DOI    10.1002/CMDC.201700788                                       

>  <REMARK>
   2                                                                      
   2 RESOLUTION.    1.40 ANGSTROMS.                                       
   3                                                                      
   3 REFINEMENT.                                                          
   3   PROGRAM     : REFMAC                                               
   3   AUTHORS     : MURSHUDOV,SKUBAK,LEBEDEV,PANNU,STEINER,              
   3               : NICHOLLS,WINN,LONG,VAGIN                             
   3                                                                      
   3  DATA USED IN REFINEMENT.                                            
   3   RESOLUTION RANGE HIGH (ANGSTROMS) : 1.40                           
   3   RESOLUTION RANGE LOW  (ANGSTROMS) : 40.57                          
   3   DATA CUTOFF            (SIGMA(F)) : NULL                           
   3   COMPLETENESS FOR RANGE        (%) : 98.2                           
   3   NUMBER OF REFLECTIONS             : 45709                          
   3                                                                      
   3  FIT TO DATA USED IN REFINEMENT.                                     
   3   CROSS-VALIDATION METHOD          : FREE R-VALUE                    
   3   FREE R VALUE TEST SET SELECTION  : NULL                            
   3   R VALUE     (WORKING + TEST SET) : NULL                            
   3   R VALUE            (WORKING SET) : NULL                            
   3   FREE R VALUE                     : NULL                            
   3   FREE R VALUE TEST SET SIZE   (%) : NULL                            
   3   FREE R VALUE TEST SET COUNT      : NULL                            
   3                                                                      
   3  NUMBER OF NON-HYDROGEN ATOMS USED IN REFINEMENT.                    
   3   PROTEIN ATOMS            : 1971                                    
   3   NUCLEIC ACID ATOMS       : 0                                       
   3   HETEROGEN ATOMS          : 26                                      
   3   SOLVENT ATOMS            : 154                                     
   3                                                                      
   3  B VALUES.                                                           
   3   FROM WILSON PLOT           (A**2) : NULL                           
   3   MEAN B VALUE      (OVERALL, A**2) : NULL                           
   3   OVERALL ANISOTROPIC B VALUE.                                       
   3    B11 (A**2) : NULL                                                 
   3    B22 (A**2) : NULL                                                 
   3    B33 (A**2) : NULL                                                 
   3    B12 (A**2) : NULL                                                 
   3    B13 (A**2) : NULL                                                 
   3    B23 (A**2) : NULL                                                 
   3                                                                      
   3  ESTIMATED OVERALL COORDINATE ERROR.                                 
   3   ESU BASED ON R VALUE                            (A): NULL          
   3   ESU BASED ON FREE R VALUE                       (A): NULL          
   3   ESU BASED ON MAXIMUM LIKELIHOOD                 (A): NULL          
   3   ESU FOR B VALUES BASED ON MAXIMUM LIKELIHOOD (A**2): NULL          
   3                                                                      
   3  RMS DEVIATIONS FROM IDEAL VALUES.                                   
   3   DISTANCE RESTRAINTS.                    RMS    SIGMA               
   3    BOND LENGTH                     (A) : NULL  ; NULL                
   3    ANGLE DISTANCE                  (A) : NULL  ; NULL                
   3    INTRAPLANAR 1-4 DISTANCE        (A) : NULL  ; NULL                
   3    H-BOND OR METAL COORDINATION    (A) : NULL  ; NULL                
   3                                                                      
   3   PLANE RESTRAINT                  (A) : NULL  ; NULL                
   3   CHIRAL-CENTER RESTRAINT       (A**3) : NULL  ; NULL                
   3                                                                      
   3   NON-BONDED CONTACT RESTRAINTS.                                     
   3    SINGLE TORSION                  (A) : NULL  ; NULL                
   3    MULTIPLE TORSION                (A) : NULL  ; NULL                
   3    H-BOND (X...Y)                  (A) : NULL  ; NULL                
   3    H-BOND (X-H...Y)                (A) : NULL  ; NULL                
   3                                                                      
   3   CONFORMATIONAL TORSION ANGLE RESTRAINTS.                           
   3    SPECIFIED                 (DEGREES) : NULL  ; NULL                
   3    PLANAR                    (DEGREES) : NULL  ; NULL                
   3    STAGGERED                 (DEGREES) : NULL  ; NULL                
   3    TRANSVERSE                (DEGREES) : NULL  ; NULL                
   3                                                                      
   3  ISOTROPIC THERMAL FACTOR RESTRAINTS.    RMS    SIGMA                
   3   MAIN-CHAIN BOND              (A**2) : NULL  ; NULL                 
   3   MAIN-CHAIN ANGLE             (A**2) : NULL  ; NULL                 
   3   SIDE-CHAIN BOND              (A**2) : NULL  ; NULL                 
   3   SIDE-CHAIN ANGLE             (A**2) : NULL  ; NULL                 
   3                                                                      
   3  OTHER REFINEMENT REMARKS: NULL                                      
   4                                                                      
   4 5LL7 COMPLIES WITH FORMAT V. 3.30, 13-JUL-11                         
 100                                                                      
 100 THIS ENTRY HAS BEEN PROCESSED BY PDBE ON 27-JUL-16.                  
 100 THE DEPOSITION ID IS D_1200000902.                                   
 200                                                                      
 200 EXPERIMENTAL DETAILS                                                 
 200  EXPERIMENT TYPE                : X-RAY DIFFRACTION                  
 200  DATE OF DATA COLLECTION        : 29-APR-16                          
 200  TEMPERATURE           (KELVIN) : 100                                
 200  PH                             : 4                                  
 200  NUMBER OF CRYSTALS USED        : 1                                  
 200                                                                      
 200  SYNCHROTRON              (Y/N) : Y                                  
 200  RADIATION SOURCE               : ESRF                               
 200  BEAMLINE                       : ID23-1                             
 200  X-RAY GENERATOR MODEL          : NULL                               
 200  MONOCHROMATIC OR LAUE    (M/L) : M                                  
 200  WAVELENGTH OR RANGE        (A) : 0.97778                            
 200  MONOCHROMATOR                  : NULL                               
 200  OPTICS                         : NULL                               
 200                                                                      
 200  DETECTOR TYPE                  : PIXEL                              
 200  DETECTOR MANUFACTURER          : DECTRIS PILATUS3 S 6M              
 200  INTENSITY-INTEGRATION SOFTWARE : XDS                                
 200  DATA SCALING SOFTWARE          : AIMLESS                            
 200                                                                      
 200  NUMBER OF UNIQUE REFLECTIONS   : 46694                              
 200  RESOLUTION RANGE HIGH      (A) : 1.400                              
 200  RESOLUTION RANGE LOW       (A) : 40.565                             
 200  REJECTION CRITERIA  (SIGMA(I)) : NULL                               
 200                                                                      
 200 OVERALL.                                                             
 200  COMPLETENESS FOR RANGE     (%) : 98.2                               
 200  DATA REDUNDANCY                : 3.500                              
 200  R MERGE                    (I) : 0.07400                            
 200  R SYM                      (I) : NULL                               
 200  <I/SIGMA(I)> FOR THE DATA SET  : 7.8000                             
 200                                                                      
 200 IN THE HIGHEST RESOLUTION SHELL.                                     
 200  HIGHEST RESOLUTION SHELL, RANGE HIGH (A) : 1.40                     
 200  HIGHEST RESOLUTION SHELL, RANGE LOW  (A) : 1.42                     
 200  COMPLETENESS FOR SHELL     (%) : 96.6                               
 200  DATA REDUNDANCY IN SHELL       : 2.70                               
 200  R MERGE FOR SHELL          (I) : 0.68200                            
 200  R SYM FOR SHELL            (I) : NULL                               
 200  <I/SIGMA(I)> FOR SHELL         : 1.600                              
 200                                                                      
 200 DIFFRACTION PROTOCOL: SINGLE WAVELENGTH                              
 200 METHOD USED TO DETERMINE THE STRUCTURE: MOLECULAR REPLACEMENT        
 200 SOFTWARE USED: PHENIX                                                
 200 STARTING MODEL: 3C5A                                                 
 200                                                                      
 200 REMARK: NULL                                                         
 280                                                                      
 280 CRYSTAL                                                              
 280 SOLVENT CONTENT, VS   (%): 40.01                                     
 280 MATTHEWS COEFFICIENT, VM (ANGSTROMS**3/DA): 2.05                     
 280                                                                      
 280 CRYSTALLIZATION CONDITIONS: 15% POLYETHYLENE GLYCOL 6000 (PEG        
 280  6000), 200MM POTASSIUM THIOCYANATE (KSCN), 100 MM SODIUM CITRATE    
 280  (PH 4), VAPOR DIFFUSION, HANGING DROP, TEMPERATURE 293K             
 290                                                                      
 290 CRYSTALLOGRAPHIC SYMMETRY                                            
 290 SYMMETRY OPERATORS FOR SPACE GROUP: P 21 21 21                       
 290                                                                      
 290      SYMOP   SYMMETRY                                                
 290     NNNMMM   OPERATOR                                                
 290       1555   X,Y,Z                                                   
 290       2555   -X+1/2,-Y,Z+1/2                                         
 290       3555   -X,Y+1/2,-Z+1/2                                         
 290       4555   X+1/2,-Y+1/2,-Z                                         
 290                                                                      
 290     WHERE NNN -> OPERATOR NUMBER                                     
 290           MMM -> TRANSLATION VECTOR                                  
 290                                                                      
 290 CRYSTALLOGRAPHIC SYMMETRY TRANSFORMATIONS                            
 290 THE FOLLOWING TRANSFORMATIONS OPERATE ON THE ATOM/HETATM             
 290 RECORDS IN THIS ENTRY TO PRODUCE CRYSTALLOGRAPHICALLY                
 290 RELATED MOLECULES.                                                   
 290   SMTRY1   1  1.000000  0.000000  0.000000        0.00000            
 290   SMTRY2   1  0.000000  1.000000  0.000000        0.00000            
 290   SMTRY3   1  0.000000  0.000000  1.000000        0.00000            
 290   SMTRY1   2 -1.000000  0.000000  0.000000       24.51650            
 290   SMTRY2   2  0.000000 -1.000000  0.000000        0.00000            
 290   SMTRY3   2  0.000000  0.000000  1.000000       36.10500            
 290   SMTRY1   3 -1.000000  0.000000  0.000000        0.00000            
 290   SMTRY2   3  0.000000  1.000000  0.000000       32.88200            
 290   SMTRY3   3  0.000000  0.000000 -1.000000       36.10500            
 290   SMTRY1   4  1.000000  0.000000  0.000000       24.51650            
 290   SMTRY2   4  0.000000 -1.000000  0.000000       32.88200            
 290   SMTRY3   4  0.000000  0.000000 -1.000000        0.00000            
 290                                                                      
 290 REMARK: NULL                                                         
 300                                                                      
 300 BIOMOLECULE: 1                                                       
 300 SEE REMARK 350 FOR THE AUTHOR PROVIDED AND/OR PROGRAM                
 300 GENERATED ASSEMBLY INFORMATION FOR THE STRUCTURE IN                  
 300 THIS ENTRY. THE REMARK MAY ALSO PROVIDE INFORMATION ON               
 300 BURIED SURFACE AREA.                                                 
 350                                                                      
 350 COORDINATES FOR A COMPLETE MULTIMER REPRESENTING THE KNOWN           
 350 BIOLOGICALLY SIGNIFICANT OLIGOMERIZATION STATE OF THE                
 350 MOLECULE CAN BE GENERATED BY APPLYING BIOMT TRANSFORMATIONS          
 350 GIVEN BELOW.  BOTH NON-CRYSTALLOGRAPHIC AND                          
 350 CRYSTALLOGRAPHIC OPERATIONS ARE GIVEN.                               
 350                                                                      
 350 BIOMOLECULE: 1                                                       
 350 AUTHOR DETERMINED BIOLOGICAL UNIT: MONOMERIC                         
 350 SOFTWARE DETERMINED QUATERNARY STRUCTURE: MONOMERIC                  
 350 SOFTWARE USED: PISA                                                  
 350 TOTAL BURIED SURFACE AREA: 500 ANGSTROM**2                           
 350 SURFACE AREA OF THE COMPLEX: 11070 ANGSTROM**2                       
 350 CHANGE IN SOLVENT FREE ENERGY: 6.0 KCAL/MOL                          
 350 APPLY THE FOLLOWING TO CHAINS: A                                     
 350   BIOMT1   1  1.000000  0.000000  0.000000        0.00000            
 350   BIOMT2   1  0.000000  1.000000  0.000000        0.00000            
 350   BIOMT3   1  0.000000  0.000000  1.000000        0.00000            
 465                                                                      
 465 MISSING RESIDUES                                                     
 465 THE FOLLOWING RESIDUES WERE NOT LOCATED IN THE                       
 465 EXPERIMENT. (M=MODEL NUMBER; RES=RESIDUE NAME; C=CHAIN               
 465 IDENTIFIER; SSSEQ=SEQUENCE NUMBER; I=INSERTION CODE.)                
 465                                                                      
 465   M RES C SSSEQI                                                     
 465     VAL A   292                                                      
 465     ASN A   293                                                      
 465     GLY A   294                                                      
 465     GLN A   295                                                      
 500                                                                      
 500 GEOMETRY AND STEREOCHEMISTRY                                         
 500 SUBTOPIC: CLOSE CONTACTS IN SAME ASYMMETRIC UNIT                     
 500                                                                      
 500 THE FOLLOWING ATOMS ARE IN CLOSE CONTACT.                            
 500                                                                      
 500  ATM1  RES C  SSEQI   ATM2  RES C  SSEQI           DISTANCE          
 500   O    HOH A   546     O    HOH A   550              1.08            
 500   O    HOH A   489     O    HOH A   549              1.26            
 500   O    HOH A   486     O    HOH A   542              1.49            
 500   OG   SER A    70     B12  6YV A   301              1.78            
 500   CZ   ARG A   266     O    HOH A   401              1.85            
 500   O    HOH A   416     O    HOH A   512              1.93            
 500   NH2  ARG A   266     O    HOH A   401              2.05            
 500   O    HOH A   525     O    HOH A   542              2.14            
 500                                                                      
 500 REMARK: NULL                                                         
 500                                                                      
 500 GEOMETRY AND STEREOCHEMISTRY                                         
 500 SUBTOPIC: CLOSE CONTACTS                                             
 500                                                                      
 500 THE FOLLOWING ATOMS THAT ARE RELATED BY CRYSTALLOGRAPHIC             
 500 SYMMETRY ARE IN CLOSE CONTACT.  AN ATOM LOCATED WITHIN 0.15          
 500 ANGSTROMS OF A SYMMETRY RELATED ATOM IS ASSUMED TO BE ON A           
 500 SPECIAL POSITION AND IS, THEREFORE, LISTED IN REMARK 375             
 500 INSTEAD OF REMARK 500.  ATOMS WITH NON-BLANK ALTERNATE               
 500 LOCATION INDICATORS ARE NOT INCLUDED IN THE CALCULATIONS.            
 500                                                                      
 500 DISTANCE CUTOFF:                                                     
 500 2.2 ANGSTROMS FOR CONTACTS NOT INVOLVING HYDROGEN ATOMS              
 500 1.6 ANGSTROMS FOR CONTACTS INVOLVING HYDROGEN ATOMS                  
 500                                                                      
 500  ATM1  RES C  SSEQI   ATM2  RES C  SSEQI  SSYMOP   DISTANCE          
 500   O    HOH A   415     O    HOH A   520     2574     1.21            
 500   O    HOH A   402     O    HOH A   409     3545     1.87            
 500   O    HOH A   539     O    HOH A   549     2574     2.06            
 500                                                                      
 500 REMARK: NULL                                                         
 500                                                                      
 500 GEOMETRY AND STEREOCHEMISTRY                                         
 500 SUBTOPIC: TORSION ANGLES                                             
 500                                                                      
 500 TORSION ANGLES OUTSIDE THE EXPECTED RAMACHANDRAN REGIONS:            
 500 (M=MODEL NUMBER; RES=RESIDUE NAME; C=CHAIN IDENTIFIER;               
 500 SSEQ=SEQUENCE NUMBER; I=INSERTION CODE).                             
 500                                                                      
 500 STANDARD TABLE:                                                      
 500 FORMAT:(10X,I3,1X,A3,1X,A1,I4,A1,4X,F7.2,3X,F7.2)                    
 500                                                                      
 500 EXPECTED VALUES: GJ KLEYWEGT AND TA JONES (1996). PHI/PSI-           
 500 CHOLOGY: RAMACHANDRAN REVISITED. STRUCTURE 4, 1395 - 1400            
 500                                                                      
 500  M RES CSSEQI        PSI       PHI                                   
 500    CYS A  69     -145.65     52.37                                   
 500    ARG A  96       74.62   -106.05                                   
 500    ARG A 220     -121.06   -111.36                                   
 500                                                                      
 500 REMARK: NULL                                                         
 500                                                                      
 500 GEOMETRY AND STEREOCHEMISTRY                                         
 500 SUBTOPIC: PLANAR GROUPS                                              
 500                                                                      
 500 PLANAR GROUPS IN THE FOLLOWING RESIDUES HAVE A TOTAL                 
 500 RMS DISTANCE OF ALL ATOMS FROM THE BEST-FIT PLANE                    
 500 BY MORE THAN AN EXPECTED VALUE OF 6*RMSD, WITH AN                    
 500 RMSD 0.02 ANGSTROMS, OR AT LEAST ONE ATOM HAS                        
 500 AN RMSD GREATER THAN THIS VALUE                                      
 500 (M=MODEL NUMBER; RES=RESIDUE NAME; C=CHAIN IDENTIFIER;               
 500 SSEQ=SEQUENCE NUMBER; I=INSERTION CODE).                             
 500                                                                      
 500  M RES CSSEQI        RMS     TYPE                                    
 500    ARG A 266         0.20    SIDE CHAIN                              
 500                                                                      
 500 REMARK: NULL                                                         
 800                                                                      
 800 SITE                                                                 
 800 SITE_IDENTIFIER: AC1                                                 
 800 EVIDENCE_CODE: SOFTWARE                                              
 800 SITE_DESCRIPTION: binding site for residue 6YV A 301                 
 800                                                                      
 800 SITE_IDENTIFIER: AC2                                                 
 800 EVIDENCE_CODE: SOFTWARE                                              
 800 SITE_DESCRIPTION: binding site for residue EDO A 302                 
 800                                                                      
 800 SITE_IDENTIFIER: AC3                                                 
 800 EVIDENCE_CODE: SOFTWARE                                              
 800 SITE_DESCRIPTION: binding site for residue EDO A 303                 
 800                                                                      
 800 SITE_IDENTIFIER: AC4                                                 
 800 EVIDENCE_CODE: SOFTWARE                                              
 800 SITE_DESCRIPTION: binding site for residue EDO A 304                 
 900                                                                      
 900 RELATED ENTRIES                                                      
 900 RELATED ID: 5MGI   RELATED DB: PDB                                   

>  <DBREF1>
 5LL7 A   26   295  UNP                  A0A0H4IUK8_ECOLX                 

>  <DBREF2>
 5LL7 A     A0A0H4IUK8                         26         293             

>  <SEQRES>
   1 A  268  THR ASN LEU VAL ALA GLU PRO PHE ALA LYS LEU GLU GLN          
   2 A  268  ASP PHE GLY GLY SER ILE GLY VAL TYR ALA MET ASP THR          
   3 A  268  GLY SER GLY ALA THR VAL SER TYR ARG ALA GLU GLU ARG          
   4 A  268  PHE PRO LEU CYS SER SER PHE LYS GLY PHE LEU ALA ALA          
   5 A  268  ALA VAL LEU ALA ARG SER GLN GLN GLN ALA GLY LEU LEU          
   6 A  268  ASP THR PRO ILE ARG TYR GLY LYS ASN ALA LEU VAL PRO          
   7 A  268  TRP SER PRO ILE SER GLU LYS TYR LEU THR THR GLY MET          
   8 A  268  THR VAL ALA GLU LEU SER ALA ALA ALA VAL GLN TYR SER          
   9 A  268  ASP ASN ALA ALA ALA ASN LEU LEU LEU LYS GLU LEU GLY          
  10 A  268  GLY PRO ALA GLY LEU THR ALA PHE MET ARG SER ILE GLY          
  11 A  268  ASP THR THR PHE ARG LEU ASP ARG TRP GLU LEU GLU LEU          
  12 A  268  ASN SER ALA ILE PRO GLY ASP ALA ARG ASP THR SER SER          
  13 A  268  PRO ARG ALA VAL THR GLU SER LEU GLN LYS LEU THR LEU          
  14 A  268  GLY SER ALA LEU ALA ALA PRO GLN ARG GLN GLN PHE VAL          
  15 A  268  ASP TRP LEU LYS GLY ASN THR THR GLY ASN HIS ARG ILE          
  16 A  268  ARG ALA ALA VAL PRO ALA ASP TRP ALA VAL GLY ASP LYS          
  17 A  268  THR GLY THR CYS GLY VAL TYR GLY THR ALA ASN ASP TYR          
  18 A  268  ALA VAL VAL TRP PRO THR GLY ARG ALA PRO ILE VAL LEU          
  19 A  268  ALA VAL TYR THR ARG ALA PRO ASN LYS ASP ASP LYS HIS          
  20 A  268  SER GLU ALA VAL ILE ALA ALA ALA ALA ARG LEU ALA LEU          
  21 A  268  GLU GLY LEU GLY VAL ASN GLY GLN                              

>  <HET>
 6YV  A 301      14                                                       
 EDO  A 302       4                                                       
 EDO  A 303       4                                                       
 EDO  A 304       4                                                       

>  <HETNAM>
     6YV (~{E})-3-[2-(DIHYDROXYBORANYL)PHENYL]PROP-2-ENOIC ACID           
     EDO 1,2-ETHANEDIOL                                                   

>  <HETSYN>
     EDO ETHYLENE GLYCOL                                                  

>  <FORMUL>
   2  6YV    C9 H9 B O4                                                   
   3  EDO    3(C2 H6 O2)                                                  
   6  HOH   *154(H2 O)                                                    

>  <HELIX>
   1 AA1 ALA A   30  GLY A   41  1                                  12    
   2 AA2 SER A   71  GLN A   85  1                                  15    
   3 AA3 GLY A   98  LEU A  102  5                                   5    
   4 AA4 SER A  106  TYR A  112  1                                   7    
   5 AA5 VAL A  119  SER A  130  1                                  12    
   6 AA6 ASP A  131  LEU A  142  1                                  12    
   7 AA7 GLY A  143  ILE A  155  1                                  13    
   8 AA8 LEU A  167  SER A  171  5                                   5    
   9 AA9 SER A  182  LEU A  195  1                                  14    
  10 AB1 ALA A  200  GLY A  213  1                                  14    
  11 AB2 ARG A  220  VAL A  225  1                                   6    
  12 AB3 GLY A  239  GLY A  242  5                                   4    
  13 AB4 SER A  275  LEU A  290  1                                  16    

>  <SHEET>
   1 AA1 5 THR A  56  TYR A  60  0                                        
   2 AA1 5 SER A  43  ASP A  50 -1  N  VAL A  46   O  TYR A  60           
   3 AA1 5 ILE A 259  ARG A 266 -1  O  TYR A 264   N  GLY A  45           
   4 AA1 5 ALA A 244  TRP A 251 -1  N  VAL A 250   O  ILE A 259           
   5 AA1 5 ALA A 230  THR A 237 -1  N  ALA A 230   O  TRP A 251           
   1 AA2 2 PHE A  66  PRO A  67  0                                        
   2 AA2 2 THR A 180  SER A 181 -1  O  SER A 181   N  PHE A  66           
   1 AA3 2 PRO A  94  ILE A  95  0                                        
   2 AA3 2 MET A 117  THR A 118 -1  O  MET A 117   N  ILE A  95           

>  <SSBOND>
   1 CYS A   69    CYS A  238                          1555   1555  2.07  

>  <CISPEP>
   1 GLU A  166    LEU A  167          0         3.33                     

>  <SITE>
   1 AC1 12 CYS A  69  SER A  70  TRP A 105  SER A 130                    
   2 AC1 12 ASN A 132  GLU A 166  ASN A 170  LYS A 234                    
   3 AC1 12 THR A 235  THR A 237  ARG A 256  HOH A 430                    
   1 AC2  4 ILE A 155  ALA A 198  HOH A 465  HOH A 532                    
   1 AC3  4 ALA A 150  ARG A 153  HOH A 425  HOH A 442                    
   1 AC4  4 LYS A 212  ARG A 222  ALA A 230  VAL A 231                    

>  <ORIGX1>
      1.000000  0.000000  0.000000        0.00000                         

>  <ORIGX2>
      0.000000  1.000000  0.000000        0.00000                         

>  <ORIGX3>
      0.000000  0.000000  1.000000        0.00000                         

>  <SCALE1>
      0.020394  0.000000  0.000000        0.00000                         

>  <SCALE2>
      0.000000  0.015206  0.000000        0.00000                         

>  <SCALE3>
      0.000000  0.000000  0.013848        0.00000                         

>  <MASTER>
      299    0    4   13    9    0    6    6 2151    1   28   21          

$$$$
