start_structures/Ligand_Substrate/Ligand_Complex_Stripped/8CY_5UJO.pdb
 OpenBabel08222315203D

 68 90  0  0  1  0  0  0  0  0999 V2000
    2.3290    5.8040  -15.0240 N   0  0  0  0  0  0  0  0  0  0  0  0
    2.0320    4.9070  -16.1450 C   0  0  2  0  0  0  0  0  0  0  0  0
    0.6230    5.0950  -16.7200 C   0  0  0  0  0  0  0  0  0  0  0  0
    0.2950    4.5080  -17.7500 O   0  0  0  0  0  0  0  0  0  0  0  0
    2.2220    3.4460  -15.7380 C   0  0  0  0  0  0  0  0  0  0  0  0
    3.5900    3.0820  -15.7640 O   0  0  0  0  0  0  0  0  0  0  0  0
    4.9920   -1.8350  -13.3860 C   0  0  0  0  0  0  0  0  0  0  0  0
    4.9770   -1.8390  -13.3950 C   0  0  0  0  0  0  0  0  0  0  0  0
   11.5130    7.0680  -10.2970 C   0  0  2  0  0  0  0  0  0  0  0  0
   13.9480    3.8260   -9.4910 C   0  0  2  0  0  0  0  0  0  0  0  0
   11.5620    6.7650  -11.6490 C   0  0  1  0  0  0  0  0  0  0  0  0
   13.2840    3.0970  -10.4660 C   0  0  2  0  0  0  0  0  0  0  0  0
   12.8860    6.7700  -12.0400 C   0  0  1  0  0  0  0  0  0  0  0  0
   13.6450    3.6030  -11.6970 C   0  0  2  0  0  0  0  0  0  0  0  0
   13.6600    7.0740  -10.9340 C   0  0  1  0  0  0  0  0  0  0  0  0
   14.5320    4.6430  -11.4920 C   0  0  2  0  0  0  0  0  0  0  0  0
   12.8150    7.2580   -9.8580 C   0  0  2  0  0  0  0  0  0  0  0  0
   14.7210    4.7850  -10.1320 C   0  0  1  0  0  0  0  0  0  0  0  0
   13.5460    3.1940  -10.3960 C   0  0  2  0  0  0  0  0  0  0  0  0
   11.6390    6.9020  -11.5560 C   0  0  1  0  0  0  0  0  0  0  0  0
   12.2620    3.0330  -10.8920 C   0  0  1  0  0  0  0  0  0  0  0  0
   10.8260    5.7940  -11.7200 C   0  0  2  0  0  0  0  0  0  0  0  0
   11.3680    3.4760   -9.9330 C   0  0  2  0  0  0  0  0  0  0  0  0
   10.4240    5.3610  -10.4700 C   0  0  1  0  0  0  0  0  0  0  0  0
   13.4460    3.7250   -9.1200 C   0  0  2  0  0  0  0  0  0  0  0  0
   11.7220    7.1680  -10.1980 C   0  0  2  0  0  0  0  0  0  0  0  0
    5.3100    2.2500  -14.1120 C   0  0  1  0  0  0  0  0  0  0  0  0
    5.3140    2.2390  -14.1240 C   0  0  1  0  0  0  0  0  0  0  0  0
    4.7390    0.8390  -14.0130 C   0  0  1  0  0  0  0  0  0  0  0  0
    4.7220    0.8380  -14.0350 C   0  0  1  0  0  0  0  0  0  0  0  0
    3.5320    3.6800  -13.4740 O   0  0  0  0  0  0  0  0  0  0  0  0
    3.5160    3.6410  -13.4840 O   0  0  0  0  0  0  0  0  0  0  0  0
    4.2100    3.2240  -14.4160 C   0  0  0  0  0  0  0  0  0  0  0  0
    4.2310    3.2340  -14.4230 C   0  0  0  0  0  0  0  0  0  0  0  0
    5.9350   -0.3570  -13.5380 S   0  0  0  0  0  0  0  0  0  0  0  0
    5.9140   -0.3610  -13.5680 S   0  0  0  0  0  0  0  0  0  0  0  0
    3.5590   -1.5660  -12.9300 C   0  0  0  0  0  0  0  0  0  0  0  0
    3.5460   -1.5650  -12.9390 C   0  0  0  0  0  0  0  0  0  0  0  0
    2.6710   -2.7540  -12.7000 C   0  0  0  0  0  0  0  0  0  0  0  0
    2.6590   -2.7520  -12.6980 C   0  0  0  0  0  0  0  0  0  0  0  0
    3.0310   -0.3380  -12.7540 C   0  0  0  0  0  0  0  0  0  0  0  0
    3.0220   -0.3360  -12.7610 C   0  0  0  0  0  0  0  0  0  0  0  0
    1.6430   -0.2270  -12.3140 C   0  0  0  0  0  0  0  0  0  0  0  0
    1.6380   -0.2210  -12.3110 C   0  0  0  0  0  0  0  0  0  0  0  0
    1.3550   -0.5060  -11.1330 O   0  0  0  0  0  0  0  0  0  0  0  0
    1.3330   -0.6280  -11.1710 O   0  0  0  0  0  0  0  0  0  0  0  0
    0.7940    0.2240  -13.1120 O   0  0  0  0  0  0  0  0  0  0  0  0
    0.8160    0.3640  -13.0470 O   0  0  0  0  0  0  0  0  0  0  0  0
    3.6840    0.7900  -13.0330 N   0  0  0  0  0  0  0  0  0  0  0  0
    3.6740    0.7910  -13.0480 N   0  0  0  0  0  0  0  0  0  0  0  0
    5.9830    2.5470  -12.8560 N   0  0  0  0  0  0  0  0  0  0  0  0
    5.9840    2.5040  -12.8590 N   0  0  0  0  0  0  0  0  0  0  0  0
    7.3080    2.6390  -12.7750 C   0  0  0  0  0  0  0  0  0  0  0  0
    7.3040    2.6580  -12.7750 C   0  0  0  0  0  0  0  0  0  0  0  0
    8.0570    2.1600  -13.6090 O   0  0  0  0  0  0  0  0  0  0  0  0
    8.0790    2.2130  -13.6040 O   0  0  0  0  0  0  0  0  0  0  0  0
    7.8380    3.1790  -11.4650 C   0  0  0  0  0  0  0  0  0  0  0  0
    7.7980    3.1860  -11.4490 C   0  0  0  0  0  0  0  0  0  0  0  0
    9.3580    3.2880  -11.5000 C   0  0  0  0  0  0  0  0  0  0  0  0
    9.3200    3.2680  -11.4120 C   0  0  0  0  0  0  0  0  0  0  0  0
    9.8880    3.5540  -10.1080 C   0  0  2  0  0  0  0  0  0  0  0  0
    9.7370    4.0670  -10.1980 C   0  0  1  0  0  0  0  0  0  0  0  0
    9.1680    3.9980   -9.2330 O   0  0  0  0  0  0  0  0  0  0  0  0
    9.2360    3.8450   -9.1110 O   0  0  0  0  0  0  0  0  0  0  0  0
   12.6130    5.1800  -10.5460 Ru  0  0  0  0  0  0  0  0  0  0  0  0
   12.6090    5.1880  -10.5780 Ru  0  0  0  0  0  0  0  0  0  0  0  0
   12.1040    3.9100   -8.8340 C   0  0  1  0  0  0  0  0  0  0  0  0
   10.9840    6.2140   -9.5240 C   0  0  2  0  0  0  0  0  0  0  0  0
  2  5  1  1  0  0  0
  2  1  1  0  0  0  0
  3  2  1  0  0  0  0
  4  3  2  0  0  0  0
  6 33  1  0  0  0  0
  6 34  1  0  0  0  0
  7 35  1  0  0  0  0
  7 37  1  0  0  0  0
  8 36  1  0  0  0  0
  8 38  1  0  0  0  0
  9 11  1  0  0  0  0
  9 17  1  0  0  0  0
  9 65  1  0  0  0  0
 10 12  1  0  0  0  0
 10 18  1  0  0  0  0
 10 66  1  0  0  0  0
 10 25  1  0  0  0  0
 11 13  1  0  0  0  0
 11 65  1  0  0  0  0
 12 14  1  0  0  0  0
 12 66  1  0  0  0  0
 13 15  1  0  0  0  0
 13 65  1  0  0  0  0
 14 16  1  0  0  0  0
 14 66  1  0  0  0  0
 15 17  1  0  0  0  0
 15 65  1  0  0  0  0
 16 18  1  0  0  0  0
 16 66  1  0  0  0  0
 17 65  1  0  0  0  0
 18 66  1  0  0  0  0
 19 21  1  0  0  0  0
 19 25  1  0  0  0  0
 19 65  1  0  0  0  0
 20 22  1  0  0  0  0
 20 26  1  0  0  0  0
 20 66  1  0  0  0  0
 21 23  1  0  0  0  0
 21 65  1  0  0  0  0
 22 24  1  0  0  0  0
 22 66  1  0  0  0  0
 23 61  1  0  0  0  0
 23 65  1  0  0  0  0
 23 67  1  0  0  0  0
 24 62  1  0  0  0  0
 24 66  1  0  0  0  0
 24 68  1  0  0  0  0
 25 65  1  0  0  0  0
 25 67  1  0  0  0  0
 26 66  1  0  0  0  0
 26 68  1  0  0  0  0
 27 29  1  0  0  0  0
 27 33  1  0  0  0  0
 27 51  1  0  0  0  0
 28 30  1  0  0  0  0
 28 34  1  0  0  0  0
 28 52  1  0  0  0  0
 29 35  1  0  0  0  0
 29 49  1  0  0  0  0
 30 36  1  0  0  0  0
 30 50  1  0  0  0  0
 31 33  2  0  0  0  0
 32 34  2  0  0  0  0
 37 39  1  0  0  0  0
 37 41  2  0  0  0  0
 38 40  1  0  0  0  0
 38 42  2  0  0  0  0
 41 43  1  0  0  0  0
 41 49  1  0  0  0  0
 42 44  1  0  0  0  0
 42 50  1  0  0  0  0
 43 45  2  0  0  0  0
 43 47  1  0  0  0  0
 44 46  2  0  0  0  0
 44 48  1  0  0  0  0
 51 53  1  0  0  0  0
 52 54  1  0  0  0  0
 53 55  2  0  0  0  0
 53 57  1  0  0  0  0
 54 56  2  0  0  0  0
 54 58  1  0  0  0  0
 57 59  1  0  0  0  0
 58 60  1  0  0  0  0
 59 61  1  0  0  0  0
 60 62  1  0  0  0  0
 61 63  1  0  0  0  0
 62 64  1  0  0  0  0
 62 61  1  0  0  0  0
 65 67  1  0  0  0  0
 66 68  1  0  0  0  0
M  END
>  <HEADER>
    HYDROLASE                               18-JAN-17   5UJO              

>  <TITLE>
    X-RAY CRYSTAL STRUCTURE OF RUTHENOCENYL-7-                            
   2 AMINODESACETOXYCEPHALOSPORANIC ACID COVALENT ACYL-ENYZME COMPLEX WITH
   3 CTX-M-14 E166A BETA-LACTAMASE                                        

>  <COMPND>
    MOL_ID: 1;                                                            
   2 MOLECULE: BETA-LACTAMASE;                                            
   3 CHAIN: A, B;                                                         
   4 FRAGMENT: UNP RESIDUES 26-288;                                       
   5 EC: 3.5.2.6;                                                         
   6 ENGINEERED: YES;                                                     
   7 MUTATION: YES                                                        

>  <SOURCE>
    MOL_ID: 1;                                                            
   2 ORGANISM_SCIENTIFIC: ESCHERICHIA COLI;                               
   3 ORGANISM_TAXID: 562;                                                 
   4 GENE: BLACTX-M, CTX-M-14;                                            
   5 EXPRESSION_SYSTEM: ESCHERICHIA COLI;                                 
   6 EXPRESSION_SYSTEM_TAXID: 562                                         

>  <KEYWDS>
    BETA-LACTAMASE, ORGANOMETALLIC, RUTHENOCENE, CTX-M-14, HYDROLASE      

>  <EXPDTA>
    X-RAY DIFFRACTION                                                     

>  <AUTHOR>
    E.M.LEWANDOWSKI,Y.CHEN                                                

>  <REVDAT>
   5   11-DEC-19 5UJO    1       REMARK                                   
   4   18-APR-18 5UJO    1       JRNL                                     
   3   13-SEP-17 5UJO    1       REMARK                                   
   2   19-JUL-17 5UJO    1       JRNL                                     
   1   08-FEB-17 5UJO    0                                                

>  <JRNL>
      AUTH   E.M.LEWANDOWSKI,L.SZCZUPAK,S.WONG,J.SKIBA,A.GUSPIEL,         
      AUTH 2 J.SOLECKA,V.VRCEK,K.KOWALSKI,Y.CHEN                          
      TITL   ANTIBACTERIAL PROPERTIES OF METALLOCENYL-7-ADCA DERIVATIVES  
      TITL 2 AND STRUCTURE IN COMPLEX WITH CTX-MBETA-LACTAMASE.           
      REF    ORGANOMETALLICS               V.  36  1673 2017              
      REFN                   ISSN 0276-7333                               
      PMID   29051683                                                     
      DOI    10.1021/ACS.ORGANOMET.6B00888                                

>  <REMARK>
   2                                                                      
   2 RESOLUTION.    1.35 ANGSTROMS.                                       
   3                                                                      
   3 REFINEMENT.                                                          
   3   PROGRAM     : REFMAC 5.8.0151                                      
   3   AUTHORS     : MURSHUDOV,SKUBAK,LEBEDEV,PANNU,STEINER,              
   3               : NICHOLLS,WINN,LONG,VAGIN                             
   3                                                                      
   3    REFINEMENT TARGET : MAXIMUM LIKELIHOOD                            
   3                                                                      
   3  DATA USED IN REFINEMENT.                                            
   3   RESOLUTION RANGE HIGH (ANGSTROMS) : 1.35                           
   3   RESOLUTION RANGE LOW  (ANGSTROMS) : 53.68                          
   3   DATA CUTOFF            (SIGMA(F)) : NULL                           
   3   COMPLETENESS FOR RANGE        (%) : 99.3                           
   3   NUMBER OF REFLECTIONS             : 91781                          
   3                                                                      
   3  FIT TO DATA USED IN REFINEMENT.                                     
   3   CROSS-VALIDATION METHOD          : THROUGHOUT                      
   3   FREE R VALUE TEST SET SELECTION  : RANDOM                          
   3   R VALUE     (WORKING + TEST SET) : 0.127                           
   3   R VALUE            (WORKING SET) : 0.125                           
   3   FREE R VALUE                     : 0.150                           
   3   FREE R VALUE TEST SET SIZE   (%) : 5.100                           
   3   FREE R VALUE TEST SET COUNT      : 4966                            
   3                                                                      
   3  FIT IN THE HIGHEST RESOLUTION BIN.                                  
   3   TOTAL NUMBER OF BINS USED           : 20                           
   3   BIN RESOLUTION RANGE HIGH       (A) : 1.35                         
   3   BIN RESOLUTION RANGE LOW        (A) : 1.39                         
   3   REFLECTION IN BIN     (WORKING SET) : 6573                         
   3   BIN COMPLETENESS (WORKING+TEST) (%) : 97.06                        
   3   BIN R VALUE           (WORKING SET) : 0.1390                       
   3   BIN FREE R VALUE SET COUNT          : 398                          
   3   BIN FREE R VALUE                    : 0.1800                       
   3                                                                      
   3  NUMBER OF NON-HYDROGEN ATOMS USED IN REFINEMENT.                    
   3   PROTEIN ATOMS            : 3891                                    
   3   NUCLEIC ACID ATOMS       : 0                                       
   3   HETEROGEN ATOMS          : 106                                     
   3   SOLVENT ATOMS            : 521                                     
   3                                                                      
   3  B VALUES.                                                           
   3   FROM WILSON PLOT           (A**2) : NULL                           
   3   MEAN B VALUE      (OVERALL, A**2) : 16.22                          
   3   OVERALL ANISOTROPIC B VALUE.                                       
   3    B11 (A**2) : 0.68000                                              
   3    B22 (A**2) : -0.27000                                             
   3    B33 (A**2) : -0.51000                                             
   3    B12 (A**2) : 0.00000                                              
   3    B13 (A**2) : 0.33000                                              
   3    B23 (A**2) : 0.00000                                              
   3                                                                      
   3  ESTIMATED OVERALL COORDINATE ERROR.                                 
   3   ESU BASED ON R VALUE                            (A): 0.057         
   3   ESU BASED ON FREE R VALUE                       (A): 0.049         
   3   ESU BASED ON MAXIMUM LIKELIHOOD                 (A): 0.029         
   3   ESU FOR B VALUES BASED ON MAXIMUM LIKELIHOOD (A**2): 1.525         
   3                                                                      
   3 CORRELATION COEFFICIENTS.                                            
   3   CORRELATION COEFFICIENT FO-FC      : 0.978                         
   3   CORRELATION COEFFICIENT FO-FC FREE : 0.973                         
   3                                                                      
   3  RMS DEVIATIONS FROM IDEAL VALUES        COUNT    RMS    WEIGHT      
   3   BOND LENGTHS REFINED ATOMS        (A):  4688 ; 0.003 ; 0.019       
   3   BOND LENGTHS OTHERS               (A):  4409 ; 0.002 ; 0.020       
   3   BOND ANGLES REFINED ATOMS   (DEGREES):  6368 ; 0.813 ; 2.004       
   3   BOND ANGLES OTHERS          (DEGREES): 10136 ; 0.744 ; 3.000       
   3   TORSION ANGLES, PERIOD 1    (DEGREES):   615 ; 8.222 ; 5.000       
   3   TORSION ANGLES, PERIOD 2    (DEGREES):   189 ;39.745 ;24.286       
   3   TORSION ANGLES, PERIOD 3    (DEGREES):   757 ;14.754 ;15.000       
   3   TORSION ANGLES, PERIOD 4    (DEGREES):    39 ;18.338 ;15.000       
   3   CHIRAL-CENTER RESTRAINTS       (A**3):   713 ; 0.415 ; 0.200       
   3   GENERAL PLANES REFINED ATOMS      (A):  5574 ; 0.028 ; 0.021       
   3   GENERAL PLANES OTHERS             (A):  1063 ; 0.081 ; 0.020       
   3   NON-BONDED CONTACTS REFINED ATOMS (A):  NULL ;  NULL ;  NULL       
   3   NON-BONDED CONTACTS OTHERS        (A):  NULL ;  NULL ;  NULL       
   3   NON-BONDED TORSION REFINED ATOMS  (A):  NULL ;  NULL ;  NULL       
   3   NON-BONDED TORSION OTHERS         (A):  NULL ;  NULL ;  NULL       
   3   H-BOND (X...Y) REFINED ATOMS      (A):  NULL ;  NULL ;  NULL       
   3   H-BOND (X...Y) OTHERS             (A):  NULL ;  NULL ;  NULL       
   3   POTENTIAL METAL-ION REFINED ATOMS (A):  NULL ;  NULL ;  NULL       
   3   POTENTIAL METAL-ION OTHERS        (A):  NULL ;  NULL ;  NULL       
   3   SYMMETRY VDW REFINED ATOMS        (A):  NULL ;  NULL ;  NULL       
   3   SYMMETRY VDW OTHERS               (A):  NULL ;  NULL ;  NULL       
   3   SYMMETRY H-BOND REFINED ATOMS     (A):  NULL ;  NULL ;  NULL       
   3   SYMMETRY H-BOND OTHERS            (A):  NULL ;  NULL ;  NULL       
   3   SYMMETRY METAL-ION REFINED ATOMS  (A):  NULL ;  NULL ;  NULL       
   3   SYMMETRY METAL-ION OTHERS         (A):  NULL ;  NULL ;  NULL       
   3                                                                      
   3  ISOTROPIC THERMAL FACTOR RESTRAINTS.     COUNT   RMS    WEIGHT      
   3   MAIN-CHAIN BOND REFINED ATOMS  (A**2):  2340 ; 0.998 ; 1.366       
   3   MAIN-CHAIN BOND OTHER ATOMS    (A**2):  2339 ; 0.992 ; 1.364       
   3   MAIN-CHAIN ANGLE REFINED ATOMS (A**2):  2995 ; 1.249 ; 2.058       
   3   MAIN-CHAIN ANGLE OTHER ATOMS   (A**2):  2996 ; 1.252 ; 2.059       
   3   SIDE-CHAIN BOND REFINED ATOMS  (A**2):  2348 ; 1.285 ; 1.663       
   3   SIDE-CHAIN BOND OTHER ATOMS    (A**2):  2347 ; 1.286 ; 1.663       
   3   SIDE-CHAIN ANGLE REFINED ATOMS (A**2):  NULL ;  NULL ;  NULL       
   3   SIDE-CHAIN ANGLE OTHER ATOMS   (A**2):  3330 ; 1.605 ; 2.393       
   3   LONG RANGE B REFINED ATOMS     (A**2):  5746 ; 2.958 ;19.550       
   3   LONG RANGE B OTHER ATOMS       (A**2):  5747 ; 2.958 ;19.549       
   3                                                                      
   3 ANISOTROPIC THERMAL FACTOR RESTRAINTS.    COUNT   RMS   WEIGHT       
   3   RIGID-BOND RESTRAINTS          (A**2):  9093 ; 6.832 ; 3.000       
   3   SPHERICITY; FREE ATOMS         (A**2):   131 ;26.326 ; 5.000       
   3   SPHERICITY; BONDED ATOMS       (A**2):  9322 ; 8.274 ; 5.000       
   3                                                                      
   3  NCS RESTRAINTS STATISTICS                                           
   3   NUMBER OF DIFFERENT NCS GROUPS : NULL                              
   3                                                                      
   3  TLS DETAILS                                                         
   3   NUMBER OF TLS GROUPS  : NULL                                       
   3                                                                      
   3  BULK SOLVENT MODELLING.                                             
   3   METHOD USED : MASK                                                 
   3   PARAMETERS FOR MASK CALCULATION                                    
   3   VDW PROBE RADIUS   : 1.20                                          
   3   ION PROBE RADIUS   : 0.80                                          
   3   SHRINKAGE RADIUS   : 0.80                                          
   3                                                                      
   3  OTHER REFINEMENT REMARKS: HYDROGENS HAVE BEEN ADDED IN THE RIDING   
   3  POSITIONS                                                           
   4                                                                      
   4 5UJO COMPLIES WITH FORMAT V. 3.30, 13-JUL-11                         
 100                                                                      
 100 THIS ENTRY HAS BEEN PROCESSED BY RCSB ON 19-JAN-17.                  
 100 THE DEPOSITION ID IS D_1000225982.                                   
 200                                                                      
 200 EXPERIMENTAL DETAILS                                                 
 200  EXPERIMENT TYPE                : X-RAY DIFFRACTION                  
 200  DATE OF DATA COLLECTION        : 15-APR-16                          
 200  TEMPERATURE           (KELVIN) : 100                                
 200  PH                             : 7.9                                
 200  NUMBER OF CRYSTALS USED        : 1                                  
 200                                                                      
 200  SYNCHROTRON              (Y/N) : Y                                  
 200  RADIATION SOURCE               : APS                                
 200  BEAMLINE                       : 22-ID                              
 200  X-RAY GENERATOR MODEL          : NULL                               
 200  MONOCHROMATIC OR LAUE    (M/L) : M                                  
 200  WAVELENGTH OR RANGE        (A) : 1.0                                
 200  MONOCHROMATOR                  : SI(111)                            
 200  OPTICS                         : NULL                               
 200                                                                      
 200  DETECTOR TYPE                  : CCD                                
 200  DETECTOR MANUFACTURER          : RAYONIX MX300-HS                   
 200  INTENSITY-INTEGRATION SOFTWARE : HKL-2000                           
 200  DATA SCALING SOFTWARE          : SCALEPACK                          
 200                                                                      
 200  NUMBER OF UNIQUE REFLECTIONS   : 96803                              
 200  RESOLUTION RANGE HIGH      (A) : 1.350                              
 200  RESOLUTION RANGE LOW       (A) : 53.680                             
 200  REJECTION CRITERIA  (SIGMA(I)) : NULL                               
 200                                                                      
 200 OVERALL.                                                             
 200  COMPLETENESS FOR RANGE     (%) : 99.4                               
 200  DATA REDUNDANCY                : 3.700                              
 200  R MERGE                    (I) : NULL                               
 200  R SYM                      (I) : NULL                               
 200  <I/SIGMA(I)> FOR THE DATA SET  : 27.0700                            
 200                                                                      
 200 IN THE HIGHEST RESOLUTION SHELL.                                     
 200  HIGHEST RESOLUTION SHELL, RANGE HIGH (A) : 1.35                     
 200  HIGHEST RESOLUTION SHELL, RANGE LOW  (A) : 1.37                     
 200  COMPLETENESS FOR SHELL     (%) : 97.1                               
 200  DATA REDUNDANCY IN SHELL       : 3.30                               
 200  R MERGE FOR SHELL          (I) : NULL                               
 200  R SYM FOR SHELL            (I) : NULL                               
 200  <I/SIGMA(I)> FOR SHELL         : 5.860                              
 200                                                                      
 200 DIFFRACTION PROTOCOL: SINGLE WAVELENGTH                              
 200 METHOD USED TO DETERMINE THE STRUCTURE: MOLECULAR REPLACEMENT        
 200 SOFTWARE USED: PHASER                                                
 200 STARTING MODEL: PDB ENTRY 4XXR                                       
 200                                                                      
 200 REMARK: NULL                                                         
 280                                                                      
 280 CRYSTAL                                                              
 280 SOLVENT CONTENT, VS   (%): 39.42                                     
 280 MATTHEWS COEFFICIENT, VM (ANGSTROMS**3/DA): 2.03                     
 280                                                                      
 280 CRYSTALLIZATION CONDITIONS: POTASSIUM PHOSPHATE, PH 7.9, VAPOR       
 280  DIFFUSION, HANGING DROP, TEMPERATURE 293.15K                        
 290                                                                      
 290 CRYSTALLOGRAPHIC SYMMETRY                                            
 290 SYMMETRY OPERATORS FOR SPACE GROUP: P 1 21 1                         
 290                                                                      
 290      SYMOP   SYMMETRY                                                
 290     NNNMMM   OPERATOR                                                
 290       1555   X,Y,Z                                                   
 290       2555   -X,Y+1/2,-Z                                             
 290                                                                      
 290     WHERE NNN -> OPERATOR NUMBER                                     
 290           MMM -> TRANSLATION VECTOR                                  
 290                                                                      
 290 CRYSTALLOGRAPHIC SYMMETRY TRANSFORMATIONS                            
 290 THE FOLLOWING TRANSFORMATIONS OPERATE ON THE ATOM/HETATM             
 290 RECORDS IN THIS ENTRY TO PRODUCE CRYSTALLOGRAPHICALLY                
 290 RELATED MOLECULES.                                                   
 290   SMTRY1   1  1.000000  0.000000  0.000000        0.00000            
 290   SMTRY2   1  0.000000  1.000000  0.000000        0.00000            
 290   SMTRY3   1  0.000000  0.000000  1.000000        0.00000            
 290   SMTRY1   2 -1.000000  0.000000  0.000000        0.00000            
 290   SMTRY2   2  0.000000  1.000000  0.000000       53.67550            
 290   SMTRY3   2  0.000000  0.000000 -1.000000        0.00000            
 290                                                                      
 290 REMARK: NULL                                                         
 300                                                                      
 300 BIOMOLECULE: 1, 2                                                    
 300 SEE REMARK 350 FOR THE AUTHOR PROVIDED AND/OR PROGRAM                
 300 GENERATED ASSEMBLY INFORMATION FOR THE STRUCTURE IN                  
 300 THIS ENTRY. THE REMARK MAY ALSO PROVIDE INFORMATION ON               
 300 BURIED SURFACE AREA.                                                 
 350                                                                      
 350 COORDINATES FOR A COMPLETE MULTIMER REPRESENTING THE KNOWN           
 350 BIOLOGICALLY SIGNIFICANT OLIGOMERIZATION STATE OF THE                
 350 MOLECULE CAN BE GENERATED BY APPLYING BIOMT TRANSFORMATIONS          
 350 GIVEN BELOW.  BOTH NON-CRYSTALLOGRAPHIC AND                          
 350 CRYSTALLOGRAPHIC OPERATIONS ARE GIVEN.                               
 350                                                                      
 350 BIOMOLECULE: 1                                                       
 350 AUTHOR DETERMINED BIOLOGICAL UNIT: MONOMERIC                         
 350 APPLY THE FOLLOWING TO CHAINS: A                                     
 350   BIOMT1   1  1.000000  0.000000  0.000000        0.00000            
 350   BIOMT2   1  0.000000  1.000000  0.000000        0.00000            
 350   BIOMT3   1  0.000000  0.000000  1.000000        0.00000            
 350                                                                      
 350 BIOMOLECULE: 2                                                       
 350 AUTHOR DETERMINED BIOLOGICAL UNIT: MONOMERIC                         
 350 APPLY THE FOLLOWING TO CHAINS: B                                     
 350   BIOMT1   1  1.000000  0.000000  0.000000        0.00000            
 350   BIOMT2   1  0.000000  1.000000  0.000000        0.00000            
 350   BIOMT3   1  0.000000  0.000000  1.000000        0.00000            
 465                                                                      
 465 MISSING RESIDUES                                                     
 465 THE FOLLOWING RESIDUES WERE NOT LOCATED IN THE                       
 465 EXPERIMENT. (M=MODEL NUMBER; RES=RESIDUE NAME; C=CHAIN               
 465 IDENTIFIER; SSSEQ=SEQUENCE NUMBER; I=INSERTION CODE.)                
 465                                                                      
 465   M RES C SSSEQI                                                     
 465     GLN A    25                                                      
 465     GLN B    25                                                      
 465     THR B    26                                                      
 465     SER B    27                                                      
 500                                                                      
 500 GEOMETRY AND STEREOCHEMISTRY                                         
 500 SUBTOPIC: CLOSE CONTACTS IN SAME ASYMMETRIC UNIT                     
 500                                                                      
 500 THE FOLLOWING ATOMS ARE IN CLOSE CONTACT.                            
 500                                                                      
 500  ATM1  RES C  SSEQI   ATM2  RES C  SSEQI           DISTANCE          
 500   OE2  GLU A   110     O    HOH A   401              2.10            
 500   O    HOH B   612     O    HOH B   623              2.11            
 500                                                                      
 500 REMARK: NULL                                                         
 500                                                                      
 500 GEOMETRY AND STEREOCHEMISTRY                                         
 500 SUBTOPIC: TORSION ANGLES                                             
 500                                                                      
 500 TORSION ANGLES OUTSIDE THE EXPECTED RAMACHANDRAN REGIONS:            
 500 (M=MODEL NUMBER; RES=RESIDUE NAME; C=CHAIN IDENTIFIER;               
 500 SSEQ=SEQUENCE NUMBER; I=INSERTION CODE).                             
 500                                                                      
 500 STANDARD TABLE:                                                      
 500 FORMAT:(10X,I3,1X,A3,1X,A1,I4,A1,4X,F7.2,3X,F7.2)                    
 500                                                                      
 500 EXPECTED VALUES: GJ KLEYWEGT AND TA JONES (1996). PHI/PSI-           
 500 CHOLOGY: RAMACHANDRAN REVISITED. STRUCTURE 4, 1395 - 1400            
 500                                                                      
 500  M RES CSSEQI        PSI       PHI                                   
 500    CYS A  69     -136.71     46.18                                   
 500    VAL A 103     -133.20   -118.14                                   
 500    ASN A 106       59.33   -152.79                                   
 500    ASN A 106       63.85   -153.43                                   
 500    SER A 220     -124.03   -103.83                                   
 500    GLN A 254      107.57    -54.66                                   
 500    CYS B  69     -135.82     46.42                                   
 500    VAL B 103     -131.68   -115.26                                   
 500    ASN B 106       56.59   -152.18                                   
 500    ASN B 106       63.40   -151.69                                   
 500    SER B 220     -124.01   -103.43                                   
 500                                                                      
 500 REMARK: NULL                                                         
 525                                                                      
 525 SOLVENT                                                              
 525                                                                      
 525 THE SOLVENT MOLECULES HAVE CHAIN IDENTIFIERS THAT                    
 525 INDICATE THE POLYMER CHAIN WITH WHICH THEY ARE MOST                  
 525 CLOSELY ASSOCIATED. THE REMARK LISTS ALL THE SOLVENT                 
 525 MOLECULES WHICH ARE MORE THAN 5A AWAY FROM THE                       
 525 NEAREST POLYMER CHAIN (M = MODEL NUMBER;                             
 525 RES=RESIDUE NAME; C=CHAIN IDENTIFIER; SSEQ=SEQUENCE                  
 525 NUMBER; I=INSERTION CODE):                                           
 525                                                                      
 525  M RES CSSEQI                                                        
 525    HOH A 653        DISTANCE =  6.18 ANGSTROMS                       
 525    HOH A 654        DISTANCE =  6.26 ANGSTROMS                       
 610                                                                      
 610 MISSING HETEROATOM                                                   
 610 THE FOLLOWING RESIDUES HAVE MISSING ATOMS (M=MODEL NUMBER;           
 610 RES=RESIDUE NAME; C=CHAIN IDENTIFIER; SSEQ=SEQUENCE NUMBER;          
 610 I=INSERTION CODE):                                                   
 610   M RES C SSEQI                                                      
 610     LSI A  303                                                       
 620                                                                      
 620 METAL COORDINATION                                                   
 620 (M=MODEL NUMBER; RES=RESIDUE NAME; C=CHAIN IDENTIFIER;               
 620 SSEQ=SEQUENCE NUMBER; I=INSERTION CODE):                             
 620                                                                      
 620 COORDINATION ANGLES FOR:  M RES CSSEQI METAL                         
 620                               K A 301   K                            
 620 N RES CSSEQI ATOM                                                    
 620 1 GLY A 238   O                                                      
 620 2 HOH A 575   O    85.0                                              
 620 3 HOH A 428   O    83.2  73.6                                        
 620 4 HOH A 453   O    72.5  91.5 152.7                                  
 620 5 HOH A 425   O    83.1 155.8  84.1 104.8                            
 620 6 HOH A 574   O   153.1 117.6 115.8  91.3  80.4                      
 620 N                    1     2     3     4     5                       
 620                                                                      
 620 COORDINATION ANGLES FOR:  M RES CSSEQI METAL                         
 620                               K B 301   K                            
 620 N RES CSSEQI ATOM                                                    
 620 1 GLY B 238   O                                                      
 620 2 HOH B 447   O    84.5                                              
 620 3 HOH B 570   O   154.0  78.6                                        
 620 4 HOH B 479   O    73.1 106.1  92.7                                  
 620 5 HOH B 466   O    84.4  82.3 112.4 154.8                            
 620 6 HOH B 597   O    83.4 155.4 119.2  90.7  75.2                      
 620 N                    1     2     3     4     5                       
 800                                                                      
 800 SITE                                                                 
 800 SITE_IDENTIFIER: AC1                                                 
 800 EVIDENCE_CODE: SOFTWARE                                              
 800 SITE_DESCRIPTION: binding site for residue K A 301                   
 800                                                                      
 800 SITE_IDENTIFIER: AC2                                                 
 800 EVIDENCE_CODE: SOFTWARE                                              
 800 SITE_DESCRIPTION: binding site for residue 8CY A 302                 
 800                                                                      
 800 SITE_IDENTIFIER: AC3                                                 
 800 EVIDENCE_CODE: SOFTWARE                                              
 800 SITE_DESCRIPTION: binding site for residue LSI A 303                 
 800                                                                      
 800 SITE_IDENTIFIER: AC4                                                 
 800 EVIDENCE_CODE: SOFTWARE                                              
 800 SITE_DESCRIPTION: binding site for residue K B 301                   
 800                                                                      
 800 SITE_IDENTIFIER: AC5                                                 
 800 EVIDENCE_CODE: SOFTWARE                                              
 800 SITE_DESCRIPTION: binding site for residue LSI B 303                 

>  <DBREF1>
 5UJO A   25   290  UNP                  A0A1B3B7F6_ECOLX                 
 5UJO B   25   290  UNP                  A0A1B3B7F6_ECOLX                 

>  <DBREF2>
 5UJO A     A0A1B3B7F6                         26         288             
 5UJO B     A0A1B3B7F6                         26         288             

>  <SEQADV>
 5UJO ALA A  166  UNP  A0A1B3B7F GLU   166 ENGINEERED MUTATION            
 5UJO ALA B  166  UNP  A0A1B3B7F GLU   166 ENGINEERED MUTATION            

>  <SEQRES>
   1 A  263  GLN THR SER ALA VAL GLN GLN LYS LEU ALA ALA LEU GLU          
   2 A  263  LYS SER SER GLY GLY ARG LEU GLY VAL ALA LEU ILE ASP          
   3 A  263  THR ALA ASP ASN THR GLN VAL LEU TYR ARG GLY ASP GLU          
   4 A  263  ARG PHE PRO MET CYS SER THR SER LYS VAL MET ALA ALA          
   5 A  263  ALA ALA VAL LEU LYS GLN SER GLU THR GLN LYS GLN LEU          
   6 A  263  LEU ASN GLN PRO VAL GLU ILE LYS PRO ALA ASP LEU VAL          
   7 A  263  ASN TYR ASN PRO ILE ALA GLU LYS HIS VAL ASN GLY THR          
   8 A  263  MET THR LEU ALA GLU LEU SER ALA ALA ALA LEU GLN TYR          
   9 A  263  SER ASP ASN THR ALA MET ASN LYS LEU ILE ALA GLN LEU          
  10 A  263  GLY GLY PRO GLY GLY VAL THR ALA PHE ALA ARG ALA ILE          
  11 A  263  GLY ASP GLU THR PHE ARG LEU ASP ARG THR ALA PRO THR          
  12 A  263  LEU ASN THR ALA ILE PRO GLY ASP PRO ARG ASP THR THR          
  13 A  263  THR PRO ARG ALA MET ALA GLN THR LEU ARG GLN LEU THR          
  14 A  263  LEU GLY HIS ALA LEU GLY GLU THR GLN ARG ALA GLN LEU          
  15 A  263  VAL THR TRP LEU LYS GLY ASN THR THR GLY ALA ALA SER          
  16 A  263  ILE ARG ALA GLY LEU PRO THR SER TRP THR VAL GLY ASP          
  17 A  263  LYS THR GLY SER GLY ASP TYR GLY THR THR ASN ASP ILE          
  18 A  263  ALA VAL ILE TRP PRO GLN GLY ARG ALA PRO LEU VAL LEU          
  19 A  263  VAL THR TYR PHE THR GLN PRO GLN GLN ASN ALA GLU SER          
  20 A  263  ARG ARG ASP VAL LEU ALA SER ALA ALA ARG ILE ILE ALA          
  21 A  263  GLU GLY LEU                                                  
   1 B  263  GLN THR SER ALA VAL GLN GLN LYS LEU ALA ALA LEU GLU          
   2 B  263  LYS SER SER GLY GLY ARG LEU GLY VAL ALA LEU ILE ASP          
   3 B  263  THR ALA ASP ASN THR GLN VAL LEU TYR ARG GLY ASP GLU          
   4 B  263  ARG PHE PRO MET CYS SER THR SER LYS VAL MET ALA ALA          
   5 B  263  ALA ALA VAL LEU LYS GLN SER GLU THR GLN LYS GLN LEU          
   6 B  263  LEU ASN GLN PRO VAL GLU ILE LYS PRO ALA ASP LEU VAL          
   7 B  263  ASN TYR ASN PRO ILE ALA GLU LYS HIS VAL ASN GLY THR          
   8 B  263  MET THR LEU ALA GLU LEU SER ALA ALA ALA LEU GLN TYR          
   9 B  263  SER ASP ASN THR ALA MET ASN LYS LEU ILE ALA GLN LEU          
  10 B  263  GLY GLY PRO GLY GLY VAL THR ALA PHE ALA ARG ALA ILE          
  11 B  263  GLY ASP GLU THR PHE ARG LEU ASP ARG THR ALA PRO THR          
  12 B  263  LEU ASN THR ALA ILE PRO GLY ASP PRO ARG ASP THR THR          
  13 B  263  THR PRO ARG ALA MET ALA GLN THR LEU ARG GLN LEU THR          
  14 B  263  LEU GLY HIS ALA LEU GLY GLU THR GLN ARG ALA GLN LEU          
  15 B  263  VAL THR TRP LEU LYS GLY ASN THR THR GLY ALA ALA SER          
  16 B  263  ILE ARG ALA GLY LEU PRO THR SER TRP THR VAL GLY ASP          
  17 B  263  LYS THR GLY SER GLY ASP TYR GLY THR THR ASN ASP ILE          
  18 B  263  ALA VAL ILE TRP PRO GLN GLY ARG ALA PRO LEU VAL LEU          
  19 B  263  VAL THR TYR PHE THR GLN PRO GLN GLN ASN ALA GLU SER          
  20 B  263  ARG ARG ASP VAL LEU ALA SER ALA ALA ARG ILE ILE ALA          
  21 B  263  GLU GLY LEU                                                  

>  <HET>
   K  A 301       1                                                       
 8CY  A 302      62                                                       
 LSI  A 303      11                                                       
   K  B 301       1                                                       
 8CY  B 302      62                                                       
 LSI  B 303      31                                                       

>  <HETNAM>
       K POTASSIUM ION                                                    
     8CY RUTHENOCENYL-7-AMINODESACETOXYCEPHALOSPORANIC ACID,              
   2 8CY  BOUND FORM                                                      
     LSI RUTHENOCENYL-7-AMINODESACETOXYCEPHALOSPORANIC ACID               

>  <FORMUL>
   3    K    2(K 1+)                                                      
   4  8CY    2(C22 H15 N2 O6 RU S)                                        
   5  LSI    2(C22 H22 N2 O5 RU S)                                        
   9  HOH   *521(H2 O)                                                    

>  <HELIX>
   1 AA1 SER A   27  GLY A   41  1                                  15    
   2 AA2 CYS A   69  THR A   71  5                                   3    
   3 AA3 SER A   72  GLU A   85  1                                  14    
   4 AA4 GLN A   89  ASN A   92  5                                   4    
   5 AA5 LYS A   98  LEU A  102  5                                   5    
   6 AA6 ILE A  108  VAL A  113  5                                   6    
   7 AA7 LEU A  119  SER A  130  1                                  12    
   8 AA8 ASP A  131  LEU A  142  1                                  12    
   9 AA9 GLY A  144  ILE A  155  1                                  12    
  10 AB1 PRO A  167  THR A  171  5                                   5    
  11 AB2 THR A  182  LEU A  195  1                                  14    
  12 AB3 GLY A  200  GLY A  213  1                                  14    
  13 AB4 SER A  220  LEU A  225  5                                   6    
  14 AB5 ARG A  275  GLY A  289  1                                  15    
  15 AB6 VAL B   29  GLY B   41  1                                  13    
  16 AB7 CYS B   69  THR B   71  5                                   3    
  17 AB8 SER B   72  GLU B   85  1                                  14    
  18 AB9 GLN B   89  ASN B   92  5                                   4    
  19 AC1 LYS B   98  LEU B  102  5                                   5    
  20 AC2 ILE B  108  VAL B  113  5                                   6    
  21 AC3 LEU B  119  SER B  130  1                                  12    
  22 AC4 ASP B  131  LEU B  142  1                                  12    
  23 AC5 GLY B  144  ILE B  155  1                                  12    
  24 AC6 PRO B  167  THR B  171  5                                   5    
  25 AC7 THR B  182  GLY B  196  1                                  15    
  26 AC8 GLY B  200  GLY B  213  1                                  14    
  27 AC9 SER B  220  LEU B  225  5                                   6    
  28 AD1 ARG B  275  GLY B  289  1                                  15    

>  <SHEET>
   1 AA1 5 GLN A  56  TYR A  60  0                                        
   2 AA1 5 ARG A  43  ASP A  50 -1  N  VAL A  46   O  TYR A  60           
   3 AA1 5 LEU A 259  THR A 266 -1  O  THR A 266   N  ARG A  43           
   4 AA1 5 THR A 243  TRP A 251 -1  N  ILE A 250   O  LEU A 259           
   5 AA1 5 THR A 230  GLY A 238 -1  N  THR A 230   O  TRP A 251           
   1 AA2 2 PHE A  66  PRO A  67  0                                        
   2 AA2 2 THR A 180  THR A 181 -1  O  THR A 181   N  PHE A  66           
   1 AA3 2 PRO A  94  ILE A  97  0                                        
   2 AA3 2 GLY A 115  THR A 118 -1  O  GLY A 115   N  ILE A  97           
   1 AA4 5 GLN B  56  TYR B  60  0                                        
   2 AA4 5 ARG B  43  ASP B  50 -1  N  LEU B  48   O  VAL B  57           
   3 AA4 5 LEU B 259  THR B 266 -1  O  TYR B 264   N  GLY B  45           
   4 AA4 5 THR B 243  TRP B 251 -1  N  ILE B 250   O  LEU B 259           
   5 AA4 5 THR B 230  GLY B 238 -1  N  THR B 230   O  TRP B 251           
   1 AA5 2 PHE B  66  PRO B  67  0                                        
   2 AA5 2 THR B 180  THR B 181 -1  O  THR B 181   N  PHE B  66           
   1 AA6 2 PRO B  94  ILE B  97  0                                        
   2 AA6 2 GLY B 115  THR B 118 -1  O  GLY B 115   N  ILE B  97           

>  <LINK>
       OG  SER A  70                 C32A8CY A 302     1555   1555  1.49  
       OG  SER A  70                 C32B8CY A 302     1555   1555  1.49  
       O   GLY A 238                 K     K A 301     1555   1555  2.64  
       OG  SER B  70                 C32A8CY B 302     1555   1555  1.49  
       OG  SER B  70                 C32B8CY B 302     1555   1555  1.50  
       O   GLY B 238                 K     K B 301     1555   1555  2.59  
       K     K A 301                 O   HOH A 575     1555   1555  2.79  
       K     K A 301                 O   HOH A 428     1555   1555  2.73  
       K     K A 301                 O   HOH A 453     1555   1555  2.73  
       K     K A 301                 O   HOH A 425     1555   1555  2.83  
       K     K A 301                 O   HOH A 574     1555   1555  2.51  
       K     K B 301                 O   HOH B 447     1555   1555  2.82  
       K     K B 301                 O   HOH B 570     1555   1555  2.52  
       K     K B 301                 O   HOH B 479     1555   1555  2.69  
       K     K B 301                 O   HOH B 466     1555   1555  2.70  
       K     K B 301                 O  BHOH B 597     1555   1555  2.74  

>  <CISPEP>
   1 ALA A  166    PRO A  167          0        22.83                     
   2 ALA B  166    PRO B  167          0        24.45                     

>  <SITE>
   1 AC1  6 GLY A 238  HOH A 425  HOH A 428  HOH A 453                    
   2 AC1  6 HOH A 574  HOH A 575                                          
   1 AC2 19 CYS A  69  SER A  70  ASN A 104  TYR A 105                    
   2 AC2 19 SER A 130  ASN A 132  PRO A 167  ASN A 170                    
   3 AC2 19 THR A 171  LYS A 234  THR A 235  GLY A 236                    
   4 AC2 19 SER A 237  GLY A 238  ASP A 240  ARG A 256                    
   5 AC2 19 HOH A 428  HOH A 518  HOH A 541                               
   1 AC3  4 ILE A 108  GLU A 121  ALA A 125  TYR A 129                    
   1 AC4  6 GLY B 238  HOH B 447  HOH B 466  HOH B 479                    
   2 AC4  6 HOH B 570  HOH B 597                                          
   1 AC5  5 ILE A 173  TYR A 241  HOH A 519  ARG B  43                    
   2 AC5  5 ARG B  65                                                     

>  <ORIGX1>
      1.000000  0.000000  0.000000        0.00000                         

>  <ORIGX2>
      0.000000  1.000000  0.000000        0.00000                         

>  <ORIGX3>
      0.000000  0.000000  1.000000        0.00000                         

>  <SCALE1>
      0.022241  0.000000  0.004469        0.00000                         

>  <SCALE2>
      0.000000  0.009315  0.000000        0.00000                         

>  <SCALE3>
      0.000000  0.000000  0.021269        0.00000                         

>  <ANISOU>
  365  N   SER A  70      836   1308   1326    -61   -226   -138       N  
  366  CA  SER A  70      816   1357   1438    -58   -120    -66       C  
  367  C   SER A  70      778   1216   1250     -1    -16    -72       C  
  368  O   SER A  70      992   1320   1264    -50   -158    -66       O  
  369  CB  SER A  70      668   1357   1527    -40   -236   -114       C  
  370  OG  SER A  70      963   1718   1515     76   -272   -268       O  
 4344  C1 A8CY A 302     1578   1951   2044      8    -72    -43       C  
 4345  C1 B8CY A 302     1603   2001   2288     52   -162    -55       C  
 4346  C11A8CY A 302     2379   2736   2728    322    -68   -209       C  
 4347  C11B8CY A 302     1585   2955   3106    176   -747    129       C  
 4348  C12A8CY A 302     2246   2573   2453    252   -339     80       C  
 4349  C12B8CY A 302     1930   2781   2841    -54   -511    148       C  
 4350  C13A8CY A 302     1997   2439   2350     22   -362   -145       C  
 4351  C13B8CY A 302     1883   2838   2636    230   -894     97       C  
 4352  C14A8CY A 302     1849   2844   2613    292   -237   -134       C  
 4353  C14B8CY A 302     1977   2882   3150     29   -634    179       C  
 4354  C15A8CY A 302     2136   2732   2198    127   -268   -198       C  
 4355  C15B8CY A 302     1331   2738   2793    201   -936     25       C  
 4356  C16A8CY A 302     1730   2545   2691    110   -313    -65       C  
 4357  C16B8CY A 302     1984   2754   2162     66   -671     34       C  
 4358  C17A8CY A 302     1418   2447   2551    270   -603   -304       C  
 4359  C17B8CY A 302     1577   2731   2336     14   -659    -34       C  
 4360  C18A8CY A 302     1524   2347   2590     80   -436   -481       C  
 4361  C18B8CY A 302     1751   2671   1885     -2   -612   -289       C  
 4362  C20A8CY A 302     1619   2826   3220    215   -584   -245       C  
 4363  C20B8CY A 302     1764   2569   2342    -52   -569   -208       C  
 4364  C31A8CY A 302     1004   1507   1438    233   -133   -142       C  
 4365  C31B8CY A 302     1046   1900   1582    199   -298   -237       C  
 4366  C34A8CY A 302     1132   1625   1657    205   -229   -182       C  
 4367  C34B8CY A 302     1123   1871   1881    186   -376   -200       C  
 4368  O67A8CY A 302      903   1561   1305    -22   -139     25       O  
 4369  O67B8CY A 302      826   2098   1199    -34   -547   -122       O  
 4370  C32A8CY A 302     1039   1538   1724    114    -87    -86       C  
 4371  C32B8CY A 302     1221   1936   1704    100   -308   -200       C  
 4372  S49A8CY A 302     1278   1857   1932    238   -270   -116       S  
 4373  S49B8CY A 302     1439   2019   2141    220   -390   -148       S  
 4374  C50A8CY A 302     1805   2098   2125    -27   -132    -86       C  
 4375  C50B8CY A 302     1758   1947   2354     36   -173    -40       C  
 4376  C52A8CY A 302     2406   2456   2360    -96   -167    243       C  
 4377  C52B8CY A 302     2256   2284   2503    -61   -175    185       C  
 4378  C51A8CY A 302     1383   2308   2123     58    -71   -128       C  
 4379  C51B8CY A 302     1308   1930   2408     88    -94     -5       C  
 4380  C63A8CY A 302     2040   3187   2380    208   -112    302       C  
 4381  C63B8CY A 302     1727   2294   2642    185     -9    460       C  
 4382  O65A8CY A 302     2682   4810   2826    350     78   -289       O  
 4383  O65B8CY A 302     2518   3714   3102    281    286     88       O  
 4384  O64A8CY A 302     2208   4137   3159    484   -575      0       O  
 4385  O64B8CY A 302     1664   1671   3258    210     19    431       O  
 4386  N33A8CY A 302     1614   1810   2263    145   -188    -74       N  
 4387  N33B8CY A 302     1460   1743   2349    162   -276    -49       N  
 4388  N30A8CY A 302      907   1499   1452     89   -234   -276       N  
 4389  N30B8CY A 302      982   2228   1673     77   -367   -385       N  
 4390  C27A8CY A 302     1020   1669   1392    247     17   -380       C  
 4391  C27B8CY A 302     1081   2112   1547    200   -112   -334       C  
 4392  O29A8CY A 302     1228   1848   1398    230   -211   -329       O  
 4393  O29B8CY A 302     1207   2465   1558    263   -345   -164       O  
 4394  C26A8CY A 302     1261   1788   1460    164   -175   -359       C  
 4395  C26B8CY A 302     1149   2012   1508     97   -245   -324       C  
 4396  C25A8CY A 302     1481   2449   2017     29   -168   -421       C  
 4397  C25B8CY A 302     1263   2422   1727    -21   -243   -377       C  
 4398  C24A8CY A 302     1798   2493   2281     28   -297   -506       C  
 4399  C24B8CY A 302     1400   2713   1835    -79   -455   -368       C  
 4400  O28A8CY A 302     1533   3375   2218    -14   -522   -782       O  
 4401  O28B8CY A 302     1510   2972   1990   -357   -424   -529       O  
 4402 RU  A8CY A 302     1560   2579   2758    152   -536   -157      RU  
 4403 RU  B8CY A 302     1454   2835   2817      4   -935   -118      RU  
 4404  C19A8CY A 302     1714   2695   2817    348   -565   -483       C  
 4405  C19B8CY A 302     1553   2510   2280   -159   -619   -139       C  

>  <MASTER>
      351    0    6   28   18    0   12    6 4518    2  196   42          

$$$$
