start_structures/Ligand_Substrate/Ligand_Complex_Stripped/9CP_5VFD.pdb
 OpenBabel08222315213D

 24 24  0  0  1  0  0  0  0  0999 V2000
  -27.2450   -1.9630    7.0220 N   0  0  0  0  0  0  0  0  0  0  0  0
  -26.7610   -1.5950    8.3650 C   0  0  2  0  0  0  0  0  0  0  0  0
  -25.8020   -2.5700    9.0230 C   0  0  0  0  0  0  0  0  0  0  0  0
  -25.1860   -2.1930   10.0190 O   0  0  0  0  0  0  0  0  0  0  0  0
  -27.9220   -1.3270    9.3070 C   0  0  0  0  0  0  0  0  0  0  0  0
  -28.6560   -0.2000    8.8570 O   0  0  0  0  0  0  0  0  0  0  0  0
  -31.8100    0.6800    7.0100 C   0  0  1  0  0  0  0  0  0  0  0  0
  -29.8620   -0.4180    8.0750 C   0  0  0  0  0  0  0  0  0  0  0  0
  -30.7070    1.7390    9.0110 C   0  0  0  0  0  0  0  0  0  0  0  0
  -32.3420   -2.0330   12.2900 O   0  0  0  0  0  0  0  0  0  0  0  0
  -30.4840   -1.9860   10.7770 O   0  5  0  0  0  0  0  0  0  0  0  0
  -34.5090    1.8490    9.5730 C   0  0  0  0  0  0  0  0  0  0  0  0
  -31.8980   -2.0780   10.9250 S   0  0  0  0  0  0  0  0  0  0  0  0
  -32.4950   -3.1230   10.1530 O   0  0  0  0  0  0  0  0  0  0  0  0
  -32.3810   -0.6420   10.1800 O   0  0  0  0  0  0  0  0  0  0  0  0
  -31.9330    0.5830   10.8140 N   0  0  0  0  0  0  0  0  0  0  0  0
  -31.9970    1.6630    9.8180 C   0  0  2  0  0  0  0  0  0  0  0  0
  -30.7110    0.6340    8.0030 N   0  0  0  0  0  0  0  0  0  0  0  0
  -29.9210   -1.3770    7.3040 O   0  0  0  0  0  0  0  0  0  0  0  0
  -33.2070    1.4920    8.9170 C   0  0  0  0  0  0  0  0  0  0  0  0
  -33.1220    1.0690    7.6590 C   0  0  0  0  0  0  0  0  0  0  0  0
  -31.4370    1.6270    5.8270 C   0  0  0  0  0  0  0  0  0  0  0  0
  -31.1840    2.8180    6.0190 O   0  0  0  0  0  0  0  0  0  0  0  0
  -31.3820    1.0620    4.6320 N   0  0  0  0  0  0  0  0  0  0  0  0
  2  1  1  6  0  0  0
  2  3  1  0  0  0  0
  2  5  1  0  0  0  0
  3  4  2  0  0  0  0
  6  8  1  0  0  0  0
  6  5  1  0  0  0  0
  7 18  1  0  0  0  0
  7 21  1  0  0  0  0
  7 22  1  6  0  0  0
  8 18  1  0  0  0  0
  8 19  2  0  0  0  0
  9 17  1  0  0  0  0
  9 18  1  0  0  0  0
 10 13  1  0  0  0  0
 11 13  1  0  0  0  0
 12 20  1  0  0  0  0
 13 14  1  0  0  0  0
 13 15  1  0  0  0  0
 15 16  1  0  0  0  0
 17 16  1  1  0  0  0
 17 20  1  0  0  0  0
 20 21  2  0  0  0  0
 22 23  2  0  0  0  0
 22 24  1  0  0  0  0
M  CHG  1  11  -1
M  END
>  <HEADER>
    HYDROLASE/HYDROLASE INHIBITOR           07-APR-17   5VFD              

>  <TITLE>
    DIAZABICYCLOOCTENONE ETX2514 BOUND TO CLASS D BETA LACTAMASE OXA-24   
   2 FROM A. BAUMANNII                                                    

>  <COMPND>
    MOL_ID: 1;                                                            
   2 MOLECULE: BETA-LACTAMASE;                                            
   3 CHAIN: A;                                                            
   4 SYNONYM: BETALACTAMASE OXA24,CARBAPENEM-HYDROLYZING BETA-LACTAMASE   
   5 OXA-40,CARBAPENEM-HYDROLYZING OXACILLINASE,CARBAPENEM-HYDROLYZING    
   6 OXACILLINASE OXA-40,CARBAPENEMASE OXA-24,CLASS D BETA-LACTAMASE,CLASS
   7 D BETA-LACTAMASE OXA-40,OXA24 B-LACTAMASE,OXA40;                     
   8 ENGINEERED: YES;                                                     
   9 MUTATION: YES                                                        

>  <SOURCE>
    MOL_ID: 1;                                                            
   2 ORGANISM_SCIENTIFIC: ACINETOBACTER BAUMANNII;                        
   3 ORGANISM_TAXID: 470;                                                 
   4 GENE: BLAOXA-33, BLA-OXA-40, BLAOXA-24, BLAOXA-40, OXA-24, OXA40,    
   5 A8G88_08245;                                                         
   6 EXPRESSION_SYSTEM: ESCHERICHIA COLI;                                 
   7 EXPRESSION_SYSTEM_TAXID: 511693;                                     
   8 EXPRESSION_SYSTEM_STRAIN: BL21                                       

>  <KEYWDS>
    ETX2514, BETA-LACTAMASE, PBP GRAM NEGATIVE, ASTRAZENECA, ENTASIS, A.  
   2 BAUMANNII, COVALENT INHIBITOR, HYDROLASE-HYDROLASE INHIBITOR COMPLEX 

>  <EXPDTA>
    X-RAY DIFFRACTION                                                     

>  <AUTHOR>
    N.B.OLIVIER,S.LAHIRI                                                  

>  <REVDAT>
   2   19-DEC-18 5VFD    1       JRNL                                     
   1   07-JUN-17 5VFD    0                                                

>  <JRNL>
      AUTH   T.F.DURAND-REVILLE,S.GULER,J.COMITA-PREVOIR,B.CHEN,          
      AUTH 2 N.BIFULCO,H.HUYNH,S.LAHIRI,A.B.SHAPIRO,S.M.MCLEOD,           
      AUTH 3 N.M.CARTER,S.H.MOUSSA,C.VELEZ-VEGA,N.B.OLIVIER,R.MCLAUGHLIN, 
      AUTH 4 N.GAO,J.THRESHER,T.PALMER,B.ANDREWS,R.A.GIACOBBE,J.V.NEWMAN, 
      AUTH 5 D.E.EHMANN,B.DE JONGE,J.O'DONNELL,J.P.MUELLER,R.A.TOMMASI,   
      AUTH 6 A.A.MILLER                                                   
      TITL   ETX2514 IS A BROAD-SPECTRUM BETA-LACTAMASE INHIBITOR FOR THE 
      TITL 2 TREATMENT OF DRUG-RESISTANT GRAM-NEGATIVE BACTERIA INCLUDING 
      TITL 3 ACINETOBACTER BAUMANNII.                                     
      REF    NAT MICROBIOL                 V.   2 17104 2017              
      REFN                   ESSN 2058-5276                               
      PMID   28665414                                                     
      DOI    10.1038/NMICROBIOL.2017.104                                  

>  <REMARK>
   2                                                                      
   2 RESOLUTION.    1.93 ANGSTROMS.                                       
   3                                                                      
   3 REFINEMENT.                                                          
   3   PROGRAM     : BUSTER 2.11.7                                        
   3   AUTHORS     : BRICOGNE,BLANC,BRANDL,FLENSBURG,KELLER,              
   3               : PACIOREK,ROVERSI,SHARFF,SMART,VONRHEIN,              
   3               : WOMACK,MATTHEWS,TEN EYCK,TRONRUD                     
   3                                                                      
   3  DATA USED IN REFINEMENT.                                            
   3   RESOLUTION RANGE HIGH (ANGSTROMS) : 1.93                           
   3   RESOLUTION RANGE LOW  (ANGSTROMS) : 51.34                          
   3   DATA CUTOFF            (SIGMA(F)) : 0.000                          
   3   COMPLETENESS FOR RANGE        (%) : 96.9                           
   3   NUMBER OF REFLECTIONS             : 33555                          
   3                                                                      
   3  FIT TO DATA USED IN REFINEMENT.                                     
   3   CROSS-VALIDATION METHOD           : THROUGHOUT                     
   3   FREE R VALUE TEST SET SELECTION   : RANDOM                         
   3   R VALUE     (WORKING + TEST SET)  : 0.180                          
   3   R VALUE            (WORKING SET)  : 0.179                          
   3   FREE R VALUE                      : 0.206                          
   3   FREE R VALUE TEST SET SIZE   (%)  : 5.060                          
   3   FREE R VALUE TEST SET COUNT       : 1698                           
   3   ESTIMATED ERROR OF FREE R VALUE   : 0.000                          
   3                                                                      
   3  FIT IN THE HIGHEST RESOLUTION BIN.                                  
   3   TOTAL NUMBER OF BINS USED               : 17                       
   3   BIN RESOLUTION RANGE HIGH   (ANGSTROMS) : 1.93                     
   3   BIN RESOLUTION RANGE LOW    (ANGSTROMS) : 1.99                     
   3   BIN COMPLETENESS (WORKING+TEST)     (%) : 76.88                    
   3   REFLECTIONS IN BIN (WORKING + TEST SET) : 2256                     
   3   BIN R VALUE        (WORKING + TEST SET) : 0.1950                   
   3   REFLECTIONS IN BIN        (WORKING SET) : 2155                     
   3   BIN R VALUE               (WORKING SET) : 0.1940                   
   3   BIN FREE R VALUE                        : 0.2300                   
   3   BIN FREE R VALUE TEST SET SIZE      (%) : 4.48                     
   3   BIN FREE R VALUE TEST SET COUNT         : 101                      
   3   ESTIMATED ERROR OF BIN FREE R VALUE     : 0.000                    
   3                                                                      
   3  NUMBER OF NON-HYDROGEN ATOMS USED IN REFINEMENT.                    
   3   PROTEIN ATOMS            : 1939                                    
   3   NUCLEIC ACID ATOMS       : 0                                       
   3   HETEROGEN ATOMS          : 61                                      
   3   SOLVENT ATOMS            : 227                                     
   3                                                                      
   3  B VALUES.                                                           
   3   FROM WILSON PLOT           (A**2) : 24.76                          
   3   MEAN B VALUE      (OVERALL, A**2) : 29.17                          
   3   OVERALL ANISOTROPIC B VALUE.                                       
   3    B11 (A**2) : 4.74950                                              
   3    B22 (A**2) : 4.74950                                              
   3    B33 (A**2) : -9.49900                                             
   3    B12 (A**2) : 0.00000                                              
   3    B13 (A**2) : 0.00000                                              
   3    B23 (A**2) : 0.00000                                              
   3                                                                      
   3  ESTIMATED COORDINATE ERROR.                                         
   3   ESD FROM LUZZATI PLOT                    (A) : 0.220               
   3   DPI (BLOW EQ-10) BASED ON R VALUE        (A) : 0.113               
   3   DPI (BLOW EQ-9) BASED ON FREE R VALUE    (A) : 0.109               
   3   DPI (CRUICKSHANK) BASED ON R VALUE       (A) : 0.106               
   3   DPI (CRUICKSHANK) BASED ON FREE R VALUE  (A) : 0.104               
   3                                                                      
   3   REFERENCES: BLOW, D. (2002) ACTA CRYST D58, 792-797                
   3               CRUICKSHANK, D.W.J. (1999) ACTA CRYST D55, 583-601     
   3                                                                      
   3 CORRELATION COEFFICIENTS.                                            
   3   CORRELATION COEFFICIENT FO-FC      : 0.942                         
   3   CORRELATION COEFFICIENT FO-FC FREE : 0.927                         
   3                                                                      
   3   NUMBER OF GEOMETRIC FUNCTION TERMS DEFINED : 15                    
   3   TERM                          COUNT    WEIGHT   FUNCTION.          
   3    BOND LENGTHS              : 2072   ; 2.000  ; HARMONIC            
   3    BOND ANGLES               : 2813   ; 2.000  ; HARMONIC            
   3    TORSION ANGLES            : 755    ; 2.000  ; SINUSOIDAL          
   3    TRIGONAL CARBON PLANES    : 59     ; 2.000  ; HARMONIC            
   3    GENERAL PLANES            : 296    ; 5.000  ; HARMONIC            
   3    ISOTROPIC THERMAL FACTORS : 2072   ; 20.000 ; HARMONIC            
   3    BAD NON-BONDED CONTACTS   : NULL   ; NULL   ; NULL                
   3    IMPROPER TORSIONS         : NULL   ; NULL   ; NULL                
   3    PSEUDOROTATION ANGLES     : NULL   ; NULL   ; NULL                
   3    CHIRAL IMPROPER TORSION   : 265    ; 5.000  ; SEMIHARMONIC        
   3    SUM OF OCCUPANCIES        : NULL   ; NULL   ; NULL                
   3    UTILITY DISTANCES         : NULL   ; NULL   ; NULL                
   3    UTILITY ANGLES            : NULL   ; NULL   ; NULL                
   3    UTILITY TORSION           : NULL   ; NULL   ; NULL                
   3    IDEAL-DIST CONTACT TERM   : 2620   ; 4.000  ; SEMIHARMONIC        
   3                                                                      
   3   RMS DEVIATIONS FROM IDEAL VALUES.                                  
   3    BOND LENGTHS                       (A) : 0.009                    
   3    BOND ANGLES                  (DEGREES) : 1.01                     
   3    PEPTIDE OMEGA TORSION ANGLES (DEGREES) : 2.89                     
   3    OTHER TORSION ANGLES         (DEGREES) : 16.85                    
   3                                                                      
   3  TLS DETAILS                                                         
   3   NUMBER OF TLS GROUPS  : 1                                          
   3                                                                      
   3   TLS GROUP : 1                                                      
   3    SELECTION: { A|* }                                                
   3    ORIGIN FOR THE GROUP (A):  -24.8502   -7.0862   10.9211           
   3    T TENSOR                                                          
   3     T11:   -0.0476 T22:   -0.0583                                    
   3     T33:   -0.0358 T12:    0.0237                                    
   3     T13:   -0.0246 T23:   -0.0230                                    
   3    L TENSOR                                                          
   3     L11:    0.5562 L22:    2.4642                                    
   3     L33:    0.3824 L12:    0.5479                                    
   3     L13:    0.1206 L23:    0.7567                                    
   3    S TENSOR                                                          
   3     S11:    0.0254 S12:   -0.0509 S13:   -0.0107                     
   3     S21:    0.0552 S22:    0.0344 S23:   -0.0865                     
   3     S31:    0.0054 S32:    0.0047 S33:   -0.0598                     
   3                                                                      
   3  OTHER REFINEMENT REMARKS: NULL                                      
   4                                                                      
   4 5VFD COMPLIES WITH FORMAT V. 3.30, 13-JUL-11                         
 100                                                                      
 100 THIS ENTRY HAS BEEN PROCESSED BY RCSB ON 19-APR-17.                  
 100 THE DEPOSITION ID IS D_1000226786.                                   
 200                                                                      
 200 EXPERIMENTAL DETAILS                                                 
 200  EXPERIMENT TYPE                : X-RAY DIFFRACTION                  
 200  DATE OF DATA COLLECTION        : 06-JUN-11                          
 200  TEMPERATURE           (KELVIN) : 110                                
 200  PH                             : 6                                  
 200  NUMBER OF CRYSTALS USED        : 1                                  
 200                                                                      
 200  SYNCHROTRON              (Y/N) : N                                  
 200  RADIATION SOURCE               : ROTATING ANODE                     
 200  BEAMLINE                       : NULL                               
 200  X-RAY GENERATOR MODEL          : RIGAKU FR-E+ DW                    
 200  MONOCHROMATIC OR LAUE    (M/L) : M                                  
 200  WAVELENGTH OR RANGE        (A) : 1.54                               
 200  MONOCHROMATOR                  : NULL                               
 200  OPTICS                         : NULL                               
 200                                                                      
 200  DETECTOR TYPE                  : CCD                                
 200  DETECTOR MANUFACTURER          : RIGAKU SATURN 944                  
 200  INTENSITY-INTEGRATION SOFTWARE : XDS                                
 200  DATA SCALING SOFTWARE          : SCALA                              
 200                                                                      
 200  NUMBER OF UNIQUE REFLECTIONS   : 33764                              
 200  RESOLUTION RANGE HIGH      (A) : 1.930                              
 200  RESOLUTION RANGE LOW       (A) : 102.680                            
 200  REJECTION CRITERIA  (SIGMA(I)) : 0.000                              
 200                                                                      
 200 OVERALL.                                                             
 200  COMPLETENESS FOR RANGE     (%) : 96.9                               
 200  DATA REDUNDANCY                : 13.00                              
 200  R MERGE                    (I) : 0.08100                            
 200  R SYM                      (I) : 0.08100                            
 200  <I/SIGMA(I)> FOR THE DATA SET  : 23.1000                            
 200                                                                      
 200 IN THE HIGHEST RESOLUTION SHELL.                                     
 200  HIGHEST RESOLUTION SHELL, RANGE HIGH (A) : 1.93                     
 200  HIGHEST RESOLUTION SHELL, RANGE LOW  (A) : 2.03                     
 200  COMPLETENESS FOR SHELL     (%) : 80.9                               
 200  DATA REDUNDANCY IN SHELL       : 7.80                               
 200  R MERGE FOR SHELL          (I) : 0.48800                            
 200  R SYM FOR SHELL            (I) : 0.48800                            
 200  <I/SIGMA(I)> FOR SHELL         : 4.000                              
 200                                                                      
 200 DIFFRACTION PROTOCOL: SINGLE WAVELENGTH                              
 200 METHOD USED TO DETERMINE THE STRUCTURE: MOLECULAR REPLACEMENT        
 200 SOFTWARE USED: PHASER                                                
 200 STARTING MODEL: 2JC7                                                 
 200                                                                      
 200 REMARK: NULL                                                         
 280                                                                      
 280 CRYSTAL                                                              
 280 SOLVENT CONTENT, VS   (%): 69.63                                     
 280 MATTHEWS COEFFICIENT, VM (ANGSTROMS**3/DA): 4.05                     
 280                                                                      
 280 CRYSTALLIZATION CONDITIONS: CRYSTALLIZATION WAS ACHIEVED USING 6     
 280  MG/ML OF ENZYME IN 3 MG/ML OF COMPOUND IN 01. MES BUFFER (PH 6.0)   
 280  CONTAINING 2.4 M (NH4)2SO4 AS THE PRECIPITANT SOLUTION, VAPOR       
 280  DIFFUSION, SITTING DROP, TEMPERATURE 277K                           
 290                                                                      
 290 CRYSTALLOGRAPHIC SYMMETRY                                            
 290 SYMMETRY OPERATORS FOR SPACE GROUP: P 41 21 2                        
 290                                                                      
 290      SYMOP   SYMMETRY                                                
 290     NNNMMM   OPERATOR                                                
 290       1555   X,Y,Z                                                   
 290       2555   -X,-Y,Z+1/2                                             
 290       3555   -Y+1/2,X+1/2,Z+1/4                                      
 290       4555   Y+1/2,-X+1/2,Z+3/4                                      
 290       5555   -X+1/2,Y+1/2,-Z+1/4                                     
 290       6555   X+1/2,-Y+1/2,-Z+3/4                                     
 290       7555   Y,X,-Z                                                  
 290       8555   -Y,-X,-Z+1/2                                            
 290                                                                      
 290     WHERE NNN -> OPERATOR NUMBER                                     
 290           MMM -> TRANSLATION VECTOR                                  
 290                                                                      
 290 CRYSTALLOGRAPHIC SYMMETRY TRANSFORMATIONS                            
 290 THE FOLLOWING TRANSFORMATIONS OPERATE ON THE ATOM/HETATM             
 290 RECORDS IN THIS ENTRY TO PRODUCE CRYSTALLOGRAPHICALLY                
 290 RELATED MOLECULES.                                                   
 290   SMTRY1   1  1.000000  0.000000  0.000000        0.00000            
 290   SMTRY2   1  0.000000  1.000000  0.000000        0.00000            
 290   SMTRY3   1  0.000000  0.000000  1.000000        0.00000            
 290   SMTRY1   2 -1.000000  0.000000  0.000000        0.00000            
 290   SMTRY2   2  0.000000 -1.000000  0.000000        0.00000            
 290   SMTRY3   2  0.000000  0.000000  1.000000       42.38500            
 290   SMTRY1   3  0.000000 -1.000000  0.000000       51.34000            
 290   SMTRY2   3  1.000000  0.000000  0.000000       51.34000            
 290   SMTRY3   3  0.000000  0.000000  1.000000       21.19250            
 290   SMTRY1   4  0.000000  1.000000  0.000000       51.34000            
 290   SMTRY2   4 -1.000000  0.000000  0.000000       51.34000            
 290   SMTRY3   4  0.000000  0.000000  1.000000       63.57750            
 290   SMTRY1   5 -1.000000  0.000000  0.000000       51.34000            
 290   SMTRY2   5  0.000000  1.000000  0.000000       51.34000            
 290   SMTRY3   5  0.000000  0.000000 -1.000000       21.19250            
 290   SMTRY1   6  1.000000  0.000000  0.000000       51.34000            
 290   SMTRY2   6  0.000000 -1.000000  0.000000       51.34000            
 290   SMTRY3   6  0.000000  0.000000 -1.000000       63.57750            
 290   SMTRY1   7  0.000000  1.000000  0.000000        0.00000            
 290   SMTRY2   7  1.000000  0.000000  0.000000        0.00000            
 290   SMTRY3   7  0.000000  0.000000 -1.000000        0.00000            
 290   SMTRY1   8  0.000000 -1.000000  0.000000        0.00000            
 290   SMTRY2   8 -1.000000  0.000000  0.000000        0.00000            
 290   SMTRY3   8  0.000000  0.000000 -1.000000       42.38500            
 290                                                                      
 290 REMARK: NULL                                                         
 300                                                                      
 300 BIOMOLECULE: 1                                                       
 300 SEE REMARK 350 FOR THE AUTHOR PROVIDED AND/OR PROGRAM                
 300 GENERATED ASSEMBLY INFORMATION FOR THE STRUCTURE IN                  
 300 THIS ENTRY. THE REMARK MAY ALSO PROVIDE INFORMATION ON               
 300 BURIED SURFACE AREA.                                                 
 350                                                                      
 350 COORDINATES FOR A COMPLETE MULTIMER REPRESENTING THE KNOWN           
 350 BIOLOGICALLY SIGNIFICANT OLIGOMERIZATION STATE OF THE                
 350 MOLECULE CAN BE GENERATED BY APPLYING BIOMT TRANSFORMATIONS          
 350 GIVEN BELOW.  BOTH NON-CRYSTALLOGRAPHIC AND                          
 350 CRYSTALLOGRAPHIC OPERATIONS ARE GIVEN.                               
 350                                                                      
 350 BIOMOLECULE: 1                                                       
 350 AUTHOR DETERMINED BIOLOGICAL UNIT: MONOMERIC                         
 350 SOFTWARE DETERMINED QUATERNARY STRUCTURE: MONOMERIC                  
 350 SOFTWARE USED: PISA                                                  
 350 TOTAL BURIED SURFACE AREA: 710 ANGSTROM**2                           
 350 SURFACE AREA OF THE COMPLEX: 11620 ANGSTROM**2                       
 350 CHANGE IN SOLVENT FREE ENERGY: -48.0 KCAL/MOL                        
 350 APPLY THE FOLLOWING TO CHAINS: A                                     
 350   BIOMT1   1  1.000000  0.000000  0.000000        0.00000            
 350   BIOMT2   1  0.000000  1.000000  0.000000        0.00000            
 350   BIOMT3   1  0.000000  0.000000  1.000000        0.00000            
 375                                                                      
 375 SPECIAL POSITION                                                     
 375 THE FOLLOWING ATOMS ARE FOUND TO BE WITHIN 0.15 ANGSTROMS            
 375 OF A SYMMETRY RELATED ATOM AND ARE ASSUMED TO BE ON SPECIAL          
 375 POSITIONS.                                                           
 375                                                                      
 375 ATOM RES CSSEQI                                                      
 375      HOH A 509  LIES ON A SPECIAL POSITION.                          
 375      HOH A 524  LIES ON A SPECIAL POSITION.                          
 375      HOH A 556  LIES ON A SPECIAL POSITION.                          
 500                                                                      
 500 GEOMETRY AND STEREOCHEMISTRY                                         
 500 SUBTOPIC: TORSION ANGLES                                             
 500                                                                      
 500 TORSION ANGLES OUTSIDE THE EXPECTED RAMACHANDRAN REGIONS:            
 500 (M=MODEL NUMBER; RES=RESIDUE NAME; C=CHAIN IDENTIFIER;               
 500 SSEQ=SEQUENCE NUMBER; I=INSERTION CODE).                             
 500                                                                      
 500 STANDARD TABLE:                                                      
 500 FORMAT:(10X,I3,1X,A3,1X,A1,I4,A1,4X,F7.2,3X,F7.2)                    
 500                                                                      
 500 EXPECTED VALUES: GJ KLEYWEGT AND TA JONES (1996). PHI/PSI-           
 500 CHOLOGY: RAMACHANDRAN REVISITED. STRUCTURE 4, 1395 - 1400            
 500                                                                      
 500  M RES CSSEQI        PSI       PHI                                   
 500    ALA A  80     -136.47     49.81                                   
 500    ASN A 211     -112.17     57.07                                   
 500                                                                      
 500 REMARK: NULL                                                         
 800                                                                      
 800 SITE                                                                 
 800 SITE_IDENTIFIER: AC1                                                 
 800 EVIDENCE_CODE: SOFTWARE                                              
 800 SITE_DESCRIPTION: binding site for residue SO4 A 301                 
 800                                                                      
 800 SITE_IDENTIFIER: AC2                                                 
 800 EVIDENCE_CODE: SOFTWARE                                              
 800 SITE_DESCRIPTION: binding site for residue SO4 A 302                 
 800                                                                      
 800 SITE_IDENTIFIER: AC3                                                 
 800 EVIDENCE_CODE: SOFTWARE                                              
 800 SITE_DESCRIPTION: binding site for residue SO4 A 303                 
 800                                                                      
 800 SITE_IDENTIFIER: AC4                                                 
 800 EVIDENCE_CODE: SOFTWARE                                              
 800 SITE_DESCRIPTION: binding site for residue SO4 A 304                 
 800                                                                      
 800 SITE_IDENTIFIER: AC5                                                 
 800 EVIDENCE_CODE: SOFTWARE                                              
 800 SITE_DESCRIPTION: binding site for residue SO4 A 305                 
 800                                                                      
 800 SITE_IDENTIFIER: AC6                                                 
 800 EVIDENCE_CODE: SOFTWARE                                              
 800 SITE_DESCRIPTION: binding site for residue 9CP A 306                 
 800                                                                      
 800 SITE_IDENTIFIER: AC7                                                 
 800 EVIDENCE_CODE: SOFTWARE                                              
 800 SITE_DESCRIPTION: binding site for residue 9CM A 307                 

>  <DBREF>
 5VFD A   32   275  UNP    Q8RLA6   Q8RLA6_ACIBA    32    275             

>  <SEQRES>
   1 A  244  HIS ILE SER SER GLN GLN HIS GLU LYS ALA ILE LYS SER          
   2 A  244  TYR PHE ASP GLU ALA GLN THR GLN GLY VAL ILE ILE ILE          
   3 A  244  LYS GLU GLY LYS ASN LEU SER THR TYR GLY ASN ALA LEU          
   4 A  244  ALA ARG ALA ASN LYS GLU TYR VAL PRO ALA SER THR PHE          
   5 A  244  KCX MET LEU ASN ALA LEU ILE GLY LEU GLU ASN HIS LYS          
   6 A  244  ALA THR THR ASN GLU ILE PHE LYS TRP ASP GLY LYS LYS          
   7 A  244  ARG THR TYR PRO MET TRP GLU LYS ASP MET THR LEU GLY          
   8 A  244  GLU ALA MET ALA LEU SER ALA VAL PRO VAL TYR GLN GLU          
   9 A  244  LEU ALA ARG ARG THR GLY LEU GLU LEU MET GLN LYS GLU          
  10 A  244  VAL LYS ARG VAL ASN PHE GLY ASN THR ASN ILE GLY THR          
  11 A  244  GLN VAL ASP ASN PHE TRP LEU VAL GLY PRO LEU LYS ILE          
  12 A  244  THR PRO VAL GLN GLU VAL ASN PHE ALA ASP ASP LEU ALA          
  13 A  244  HIS ASN ARG LEU PRO PHE LYS LEU GLU THR GLN GLU GLU          
  14 A  244  VAL LYS LYS MET LEU LEU ILE LYS GLU VAL ASN GLY SER          
  15 A  244  LYS ILE TYR ALA LYS SER GLY TRP GLY MET GLY VAL THR          
  16 A  244  PRO GLN VAL GLY TRP LEU THR GLY TRP VAL GLU GLN ALA          
  17 A  244  ASN GLY LYS LYS ILE PRO PHE SER LEU ASN LEU GLU MET          
  18 A  244  LYS GLU GLY MET SER GLY SER ILE ARG ASN GLU ILE THR          
  19 A  244  TYR LYS SER LEU GLU ASN LEU GLY ILE ILE                      

>  <MODRES>
 5VFD KCX A   84  LYS  MODIFIED RESIDUE                                   

>  <HET>
 KCX  A  84      12                                                       
 SO4  A 301       5                                                       
 SO4  A 302       5                                                       
 SO4  A 303       5                                                       
 SO4  A 304       5                                                       
 SO4  A 305       5                                                       
 9CP  A 306      18                                                       
 9CM  A 307      18                                                       

>  <HETNAM>
     KCX LYSINE NZ-CARBOXYLIC ACID                                        
     SO4 SULFATE ION                                                      
     9CP (2S,5R)-1-FORMYL-4-METHYL-5-[(SULFOOXY)AMINO]-1,2,5,6-           
   2 9CP  TETRAHYDROPYRIDINE-2-CARBOXAMIDE                                
     9CM (2S,5R)-4-METHYL-7-OXO-6-(SULFOOXY)-1,6-                         
   2 9CM  DIAZABICYCLO[3.2.1]OCT-3-ENE-2-CARBOXAMIDE                      

>  <FORMUL>
   1  KCX    C7 H14 N2 O4                                                 
   2  SO4    5(O4 S 2-)                                                   
   7  9CP    C8 H13 N3 O6 S                                               
   8  9CM    C8 H11 N3 O6 S                                               
   9  HOH   *227(H2 O)                                                    

>  <HELIX>
   1 AA1 SER A   34  ALA A   49  1                                  16    
   2 AA2 ALA A   69  LYS A   75  5                                   7    
   3 AA3 PRO A   79  SER A   81  5                                   3    
   4 AA4 THR A   82  ASN A   94  1                                  13    
   5 AA5 TYR A  112  GLU A  116  5                                   5    
   6 AA6 THR A  120  SER A  128  1                                   9    
   7 AA7 ALA A  129  GLY A  141  1                                  13    
   8 AA8 GLY A  141  ASN A  153  1                                  13    
   9 AA9 ASN A  165  GLY A  170  1                                   6    
  10 AB1 THR A  175  HIS A  188  1                                  14    
  11 AB2 LYS A  194  MET A  204  1                                  11    
  12 AB3 GLY A  258  LEU A  272  1                                  15    

>  <SHEET>
   1 AA1 6 ASN A  62  GLY A  67  0                                        
   2 AA1 6 GLY A  53  GLU A  59 -1  N  ILE A  57   O  SER A  64           
   3 AA1 6 LYS A 243  MET A 252 -1  O  ASN A 249   N  VAL A  54           
   4 AA1 6 GLN A 228  GLU A 237 -1  N  GLY A 230   O  LEU A 250           
   5 AA1 6 SER A 213  TRP A 221 -1  N  LYS A 214   O  GLU A 237           
   6 AA1 6 LEU A 206  VAL A 210 -1  N  LYS A 208   O  ILE A 215           

>  <LINK>
       OG  SER A  81                 C2  9CP A 306     1555   1555  1.45  
       C   PHE A  83                 N   KCX A  84     1555   1555  1.35  
       C   KCX A  84                 N   MET A  85     1555   1555  1.36  

>  <CISPEP>
   1 GLY A  170    PRO A  171          0         5.72                     
   2 THR A  226    PRO A  227          0        -2.64                     

>  <SITE>
   1 AC1  5 GLY A 141  LEU A 142  GLU A 143  HOH A 430                    
   2 AC1  5 HOH A 465                                                     
   1 AC2  4 LYS A 194  LEU A 195  HOH A 411  HOH A 517                    
   1 AC3  5 HIS A 188  GLY A 241  LYS A 242  LYS A 243                    
   2 AC3  5 HOH A 518                                                     
   1 AC4  7 GLN A 178  ASN A 181  HOH A 405  HOH A 463                    
   2 AC4  7 HOH A 472  HOH A 509  HOH A 568                               
   1 AC5  1 ARG A 190                                                     
   1 AC6 15 ALA A  80  SER A  81  KCX A  84  TYR A 112                    
   2 AC6 15 SER A 128  VAL A 130  LYS A 218  SER A 219                    
   3 AC6 15 GLY A 220  TRP A 221  MET A 223  ARG A 261                    
   4 AC6 15 9CM A 307  HOH A 551  HOH A 567                               
   1 AC7  7 TYR A 112  PRO A 113  MET A 114  TRP A 115                    
   2 AC7  7 LEU A 127  9CP A 306  HOH A 415                               

>  <ORIGX1>
      1.000000  0.000000  0.000000        0.00000                         

>  <ORIGX2>
      0.000000  1.000000  0.000000        0.00000                         

>  <ORIGX3>
      0.000000  0.000000  1.000000        0.00000                         

>  <SCALE1>
      0.009739  0.000000  0.000000        0.00000                         

>  <SCALE2>
      0.000000  0.009739  0.000000        0.00000                         

>  <SCALE3>
      0.000000  0.000000  0.011797        0.00000                         

>  <ANISOU>
  394  N   SER A  81     2133   1826   2136    227   -229   -212       N  
  395  CA  SER A  81     2027   1794   2091    234   -203   -233       C  
  396  C   SER A  81     2354   2171   2436    229   -186   -245       C  
  397  O   SER A  81     2167   2016   2275    231   -178   -263       O  
  398  CB  SER A  81     2384   2196   2515    251   -212   -238       C  
  399  OG  SER A  81     3038   2806   3192    260   -236   -239       O  

>  <MASTER>
      308    0    8   12    6    0   14    6 2227    1   76   19          

$$$$
