start_structures/Ligand_Substrate/Ligand_Complex_Stripped/9EP_3NDE.pdb
 OpenBabel08222315193D

 32 33  0  0  1  0  0  0  0  0999 V2000
  -14.9530  -11.0560    5.5860 N   0  0  0  0  0  0  0  0  0  0  0  0
  -14.4250  -10.7720    6.9400 C   0  0  2  0  0  0  0  0  0  0  0  0
  -15.3110   -9.8930    7.7890 C   0  0  0  0  0  0  0  0  0  0  0  0
  -14.9790   -9.6340    8.9490 O   0  0  0  0  0  0  0  0  0  0  0  0
  -13.0770  -10.0830    6.8830 C   0  0  0  0  0  0  0  0  0  0  0  0
  -12.0730  -11.0250    6.5100 O   0  0  0  0  0  0  0  0  0  0  0  0
   -7.7700   -6.8690   -0.3330 C   0  0  0  0  0  0  0  0  0  0  0  0
   -7.7650   -7.6820    0.7940 O   0  0  0  0  0  0  0  0  0  0  0  0
   -8.6090   -7.4820    1.8730 C   0  0  0  0  0  0  0  0  0  0  0  0
   -8.8150   -8.6080    2.9280 C   0  0  0  0  0  0  0  0  0  0  0  0
   -7.7870  -10.8730    4.2320 S   0  0  0  0  0  0  0  0  0  0  0  0
   -9.6870   -8.4440    4.0130 C   0  0  0  0  0  0  0  0  0  0  0  0
  -10.5030   -7.1950    4.2650 C   0  0  0  0  0  0  0  0  0  0  0  0
  -10.4810   -6.2530    3.4680 O   0  0  0  0  0  0  0  0  0  0  0  0
  -11.1630   -7.2030    5.3100 O   0  0  0  0  0  0  0  0  0  0  0  0
   -9.9250   -9.3790    4.9480 N   0  0  0  0  0  0  0  0  0  0  0  0
   -9.3630  -10.7280    5.0970 C   0  0  1  0  0  0  0  0  0  0  0  0
  -10.4040  -11.8060    4.7050 C   0  0  2  0  0  0  0  0  0  0  0  0
  -10.4930  -12.2130    3.2920 N   0  0  0  0  0  0  0  0  0  0  0  0
   -9.8440  -13.3020    2.8730 C   0  0  0  0  0  0  0  0  0  0  0  0
  -11.7610  -11.3270    5.1820 C   0  0  0  0  0  0  0  0  0  0  0  0
  -12.5260  -10.6770    4.2090 O   0  0  0  0  0  0  0  0  0  0  0  0
   -7.2470   -7.4650   -1.6490 C   0  0  0  0  0  0  0  0  0  0  0  0
   -8.0670   -9.9230    2.6920 C   0  0  0  0  0  0  0  0  0  0  0  0
   -8.1570   -5.6930   -0.3150 O   0  0  0  0  0  0  0  0  0  0  0  0
  -10.0490  -13.6640    1.3990 C   0  0  0  0  0  0  0  0  0  0  0  0
   -9.1350  -14.0000    3.6070 O   0  0  0  0  0  0  0  0  0  0  0  0
   -9.1740  -12.7660    0.5290 C   0  0  0  0  0  0  0  0  0  0  0  0
   -7.8400  -12.6620    0.4800 C   0  0  0  0  0  0  0  0  0  0  0  0
   -9.8060  -11.6860   -0.5830 S   0  0  0  0  0  0  0  0  0  0  0  0
   -8.2970  -11.0910   -1.1110 C   0  0  0  0  0  0  0  0  0  0  0  0
   -7.3660  -11.7510   -0.4090 C   0  0  0  0  0  0  0  0  0  0  0  0
  2  1  1  6  0  0  0
  2  3  1  0  0  0  0
  3  4  2  0  0  0  0
  5  2  1  0  0  0  0
  6 21  1  0  0  0  0
  6  5  1  0  0  0  0
  7  8  1  0  0  0  0
  7 23  1  0  0  0  0
  7 25  2  0  0  0  0
  8  9  1  0  0  0  0
  9 10  2  0  0  0  0
 10 12  1  0  0  0  0
 10 24  1  0  0  0  0
 11 17  1  0  0  0  0
 11 24  1  0  0  0  0
 12 13  1  0  0  0  0
 12 16  2  0  0  0  0
 13 14  2  0  0  0  0
 13 15  1  0  0  0  0
 16 17  1  0  0  0  0
 17 18  1  6  0  0  0
 18 19  1  6  0  0  0
 18 21  1  0  0  0  0
 19 20  1  0  0  0  0
 20 26  1  0  0  0  0
 20 27  2  0  0  0  0
 21 22  2  0  0  0  0
 26 28  1  0  0  0  0
 28 29  2  0  0  0  0
 28 30  1  0  0  0  0
 29 32  1  0  0  0  0
 30 31  1  0  0  0  0
 31 32  2  0  0  0  0
M  END
>  <HEADER>
    HYDROLASE/ANTIBIOTIC                    07-JUN-10   3NDE              

>  <TITLE>
    CRYSTAL STRUCTURE OF BLAC-E166A COVALENTLY BOUND WITH CEPHALOTIN      

>  <COMPND>
    MOL_ID: 1;                                                            
   2 MOLECULE: BETA-LACTAMASE;                                            
   3 CHAIN: A;                                                            
   4 SYNONYM: PENICILLINASE;                                              
   5 EC: 3.5.2.6;                                                         
   6 ENGINEERED: YES;                                                     
   7 MUTATION: YES                                                        

>  <SOURCE>
    MOL_ID: 1;                                                            
   2 ORGANISM_SCIENTIFIC: MYCOBACTERIUM TUBERCULOSIS;                     
   3 ORGANISM_TAXID: 1773;                                                
   4 GENE: BLAA, BLAC, MT2128, MTCY49.07C, RV2068C;                       
   5 EXPRESSION_SYSTEM: ESCHERICHIA COLI;                                 
   6 EXPRESSION_SYSTEM_TAXID: 562;                                        
   7 EXPRESSION_SYSTEM_STRAIN: ROSETTA2;                                  
   8 EXPRESSION_SYSTEM_VECTOR: PLASMID;                                   
   9 EXPRESSION_SYSTEM_PLASMID: PET28A                                    

>  <KEYWDS>
    PENICILLIN BINDING PROTEIN, BETA-LACTAM COVALENT ADDUCT, HYDROLASE-   
   2 ANTIBIOTIC COMPLEX                                                   

>  <EXPDTA>
    X-RAY DIFFRACTION                                                     

>  <AUTHOR>
    L.W.TREMBLAY,J.S.BLANCHARD                                            

>  <REVDAT>
   3   08-NOV-17 3NDE    1       REMARK                                   
   2   28-MAR-12 3NDE    1       HEADER KEYWDS HETSYN                     
   1   14-DEC-11 3NDE    0                                                

>  <JRNL>
      AUTH   L.W.TREMBLAY,J.S.BLANCHARD                                   
      TITL   BLAC-E166A COVALENTLY BOUND WITH CEPHALOSPORINS AND          
      TITL 2 PENICILLINS                                                  
      REF    TO BE PUBLISHED                                              
      REFN                                                                

>  <REMARK>
   2                                                                      
   2 RESOLUTION.    1.70 ANGSTROMS.                                       
   3                                                                      
   3 REFINEMENT.                                                          
   3   PROGRAM     : REFMAC 5.5.0102                                      
   3   AUTHORS     : MURSHUDOV,VAGIN,DODSON                               
   3                                                                      
   3    REFINEMENT TARGET : MAXIMUM LIKELIHOOD                            
   3                                                                      
   3  DATA USED IN REFINEMENT.                                            
   3   RESOLUTION RANGE HIGH (ANGSTROMS) : 1.70                           
   3   RESOLUTION RANGE LOW  (ANGSTROMS) : 35.44                          
   3   DATA CUTOFF            (SIGMA(F)) : 0.000                          
   3   COMPLETENESS FOR RANGE        (%) : 100.0                          
   3   NUMBER OF REFLECTIONS             : 28772                          
   3                                                                      
   3  FIT TO DATA USED IN REFINEMENT.                                     
   3   CROSS-VALIDATION METHOD          : THROUGHOUT                      
   3   FREE R VALUE TEST SET SELECTION  : RANDOM                          
   3   R VALUE     (WORKING + TEST SET) : 0.155                           
   3   R VALUE            (WORKING SET) : 0.153                           
   3   FREE R VALUE                     : 0.185                           
   3   FREE R VALUE TEST SET SIZE   (%) : 5.100                           
   3   FREE R VALUE TEST SET COUNT      : 1463                            
   3                                                                      
   3  FIT IN THE HIGHEST RESOLUTION BIN.                                  
   3   TOTAL NUMBER OF BINS USED           : 20                           
   3   BIN RESOLUTION RANGE HIGH       (A) : 1.70                         
   3   BIN RESOLUTION RANGE LOW        (A) : 1.74                         
   3   REFLECTION IN BIN     (WORKING SET) : 1998                         
   3   BIN COMPLETENESS (WORKING+TEST) (%) : 100.0                        
   3   BIN R VALUE           (WORKING SET) : 0.1920                       
   3   BIN FREE R VALUE SET COUNT          : 101                          
   3   BIN FREE R VALUE                    : 0.2320                       
   3                                                                      
   3  NUMBER OF NON-HYDROGEN ATOMS USED IN REFINEMENT.                    
   3   PROTEIN ATOMS            : 1984                                    
   3   NUCLEIC ACID ATOMS       : 0                                       
   3   HETEROGEN ATOMS          : 36                                      
   3   SOLVENT ATOMS            : 279                                     
   3                                                                      
   3  B VALUES.                                                           
   3   FROM WILSON PLOT           (A**2) : NULL                           
   3   MEAN B VALUE      (OVERALL, A**2) : 15.60                          
   3   OVERALL ANISOTROPIC B VALUE.                                       
   3    B11 (A**2) : 0.00000                                              
   3    B22 (A**2) : -0.01000                                             
   3    B33 (A**2) : 0.00000                                              
   3    B12 (A**2) : 0.00000                                              
   3    B13 (A**2) : 0.00000                                              
   3    B23 (A**2) : 0.00000                                              
   3                                                                      
   3  ESTIMATED OVERALL COORDINATE ERROR.                                 
   3   ESU BASED ON R VALUE                            (A): NULL          
   3   ESU BASED ON FREE R VALUE                       (A): 0.093         
   3   ESU BASED ON MAXIMUM LIKELIHOOD                 (A): 0.053         
   3   ESU FOR B VALUES BASED ON MAXIMUM LIKELIHOOD (A**2): 1.556         
   3                                                                      
   3 CORRELATION COEFFICIENTS.                                            
   3   CORRELATION COEFFICIENT FO-FC      : 0.966                         
   3   CORRELATION COEFFICIENT FO-FC FREE : 0.953                         
   3                                                                      
   3  RMS DEVIATIONS FROM IDEAL VALUES        COUNT    RMS    WEIGHT      
   3   BOND LENGTHS REFINED ATOMS        (A):  2058 ; 0.012 ; 0.022       
   3   BOND LENGTHS OTHERS               (A):  NULL ;  NULL ;  NULL       
   3   BOND ANGLES REFINED ATOMS   (DEGREES):  2810 ; 1.449 ; 1.983       
   3   BOND ANGLES OTHERS          (DEGREES):  NULL ;  NULL ;  NULL       
   3   TORSION ANGLES, PERIOD 1    (DEGREES):   264 ; 6.203 ; 5.000       
   3   TORSION ANGLES, PERIOD 2    (DEGREES):    87 ;37.942 ;23.103       
   3   TORSION ANGLES, PERIOD 3    (DEGREES):   302 ;10.698 ;15.000       
   3   TORSION ANGLES, PERIOD 4    (DEGREES):    19 ;21.828 ;15.000       
   3   CHIRAL-CENTER RESTRAINTS       (A**3):   321 ; 0.090 ; 0.200       
   3   GENERAL PLANES REFINED ATOMS      (A):  1588 ; 0.007 ; 0.021       
   3   GENERAL PLANES OTHERS             (A):  NULL ;  NULL ;  NULL       
   3   NON-BONDED CONTACTS REFINED ATOMS (A):  NULL ;  NULL ;  NULL       
   3   NON-BONDED CONTACTS OTHERS        (A):  NULL ;  NULL ;  NULL       
   3   NON-BONDED TORSION REFINED ATOMS  (A):  NULL ;  NULL ;  NULL       
   3   NON-BONDED TORSION OTHERS         (A):  NULL ;  NULL ;  NULL       
   3   H-BOND (X...Y) REFINED ATOMS      (A):  NULL ;  NULL ;  NULL       
   3   H-BOND (X...Y) OTHERS             (A):  NULL ;  NULL ;  NULL       
   3   POTENTIAL METAL-ION REFINED ATOMS (A):  NULL ;  NULL ;  NULL       
   3   POTENTIAL METAL-ION OTHERS        (A):  NULL ;  NULL ;  NULL       
   3   SYMMETRY VDW REFINED ATOMS        (A):  NULL ;  NULL ;  NULL       
   3   SYMMETRY VDW OTHERS               (A):  NULL ;  NULL ;  NULL       
   3   SYMMETRY H-BOND REFINED ATOMS     (A):  NULL ;  NULL ;  NULL       
   3   SYMMETRY H-BOND OTHERS            (A):  NULL ;  NULL ;  NULL       
   3   SYMMETRY METAL-ION REFINED ATOMS  (A):  NULL ;  NULL ;  NULL       
   3   SYMMETRY METAL-ION OTHERS         (A):  NULL ;  NULL ;  NULL       
   3                                                                      
   3  ISOTROPIC THERMAL FACTOR RESTRAINTS.     COUNT   RMS    WEIGHT      
   3   MAIN-CHAIN BOND REFINED ATOMS  (A**2):  1315 ; 0.645 ; 1.500       
   3   MAIN-CHAIN BOND OTHER ATOMS    (A**2):  NULL ;  NULL ;  NULL       
   3   MAIN-CHAIN ANGLE REFINED ATOMS (A**2):  2101 ; 1.174 ; 2.000       
   3   MAIN-CHAIN ANGLE OTHER ATOMS   (A**2):  NULL ;  NULL ;  NULL       
   3   SIDE-CHAIN BOND REFINED ATOMS  (A**2):   743 ; 2.134 ; 3.000       
   3   SIDE-CHAIN BOND OTHER ATOMS    (A**2):  NULL ;  NULL ;  NULL       
   3   SIDE-CHAIN ANGLE REFINED ATOMS (A**2):   709 ; 3.580 ; 4.500       
   3   SIDE-CHAIN ANGLE OTHER ATOMS   (A**2):  NULL ;  NULL ;  NULL       
   3   LONG RANGE B REFINED ATOMS     (A**2):  NULL ;  NULL ;  NULL       
   3   LONG RANGE B OTHER ATOMS       (A**2):  NULL ;  NULL ;  NULL       
   3                                                                      
   3 ANISOTROPIC THERMAL FACTOR RESTRAINTS.    COUNT   RMS   WEIGHT       
   3   RIGID-BOND RESTRAINTS          (A**2):  NULL ;  NULL ;  NULL       
   3   SPHERICITY; FREE ATOMS         (A**2):  NULL ;  NULL ;  NULL       
   3   SPHERICITY; BONDED ATOMS       (A**2):  NULL ;  NULL ;  NULL       
   3                                                                      
   3  NCS RESTRAINTS STATISTICS                                           
   3   NUMBER OF DIFFERENT NCS GROUPS : NULL                              
   3                                                                      
   3  TLS DETAILS                                                         
   3   NUMBER OF TLS GROUPS  : NULL                                       
   3                                                                      
   3  BULK SOLVENT MODELLING.                                             
   3   METHOD USED : MASK                                                 
   3   PARAMETERS FOR MASK CALCULATION                                    
   3   VDW PROBE RADIUS   : 1.40                                          
   3   ION PROBE RADIUS   : 0.80                                          
   3   SHRINKAGE RADIUS   : 0.80                                          
   3                                                                      
   3  OTHER REFINEMENT REMARKS: HYDROGENS HAVE BEEN ADDED IN THE RIDING   
   3  POSITIONS. U VALUES REFINED INDIVIDUALLY                            
   4                                                                      
   4 3NDE COMPLIES WITH FORMAT V. 3.30, 13-JUL-11                         
 100                                                                      
 100 THIS ENTRY HAS BEEN PROCESSED BY RCSB ON 28-JUN-10.                  
 100 THE DEPOSITION ID IS D_1000059688.                                   
 200                                                                      
 200 EXPERIMENTAL DETAILS                                                 
 200  EXPERIMENT TYPE                : X-RAY DIFFRACTION                  
 200  DATE OF DATA COLLECTION        : 2009; 2009                         
 200  TEMPERATURE           (KELVIN) : 100; 100                           
 200  PH                             : 7.5                                
 200  NUMBER OF CRYSTALS USED        : 1                                  
 200                                                                      
 200  SYNCHROTRON              (Y/N) : Y; Y                               
 200  RADIATION SOURCE               : NSLS; NSLS                         
 200  BEAMLINE                       : X12C; X29A                         
 200  X-RAY GENERATOR MODEL          : NULL; NULL                         
 200  MONOCHROMATIC OR LAUE    (M/L) : NULL; NULL                         
 200  WAVELENGTH OR RANGE        (A) : 1.000; 1.000                       
 200  MONOCHROMATOR                  : SI(111) CHANNEL CUT; SI(111)       
 200                                   CHANNEL CUT                        
 200  OPTICS                         : NULL; NULL                         
 200                                                                      
 200  DETECTOR TYPE                  : CCD; CCD                           
 200  DETECTOR MANUFACTURER          : ADSC QUANTUM 210; ADSC QUANTUM     
 200                                   210                                
 200  INTENSITY-INTEGRATION SOFTWARE : HKL-2000                           
 200  DATA SCALING SOFTWARE          : HKL-2000                           
 200                                                                      
 200  NUMBER OF UNIQUE REFLECTIONS   : 29216                              
 200  RESOLUTION RANGE HIGH      (A) : 1.700                              
 200  RESOLUTION RANGE LOW       (A) : 50.000                             
 200  REJECTION CRITERIA  (SIGMA(I)) : 0.000                              
 200                                                                      
 200 OVERALL.                                                             
 200  COMPLETENESS FOR RANGE     (%) : 100.0                              
 200  DATA REDUNDANCY                : 7.800                              
 200  R MERGE                    (I) : 0.07100                            
 200  R SYM                      (I) : NULL                               
 200  <I/SIGMA(I)> FOR THE DATA SET  : 32.7000                            
 200                                                                      
 200 IN THE HIGHEST RESOLUTION SHELL.                                     
 200  HIGHEST RESOLUTION SHELL, RANGE HIGH (A) : 1.70                     
 200  HIGHEST RESOLUTION SHELL, RANGE LOW  (A) : 1.74                     
 200  COMPLETENESS FOR SHELL     (%) : 100.0                              
 200  DATA REDUNDANCY IN SHELL       : 7.80                               
 200  R MERGE FOR SHELL          (I) : 0.39700                            
 200  R SYM FOR SHELL            (I) : NULL                               
 200  <I/SIGMA(I)> FOR SHELL         : 5.600                              
 200                                                                      
 200 DIFFRACTION PROTOCOL: SINGLE WAVELENGTH; SINGLE WAVELENGTH           
 200 METHOD USED TO DETERMINE THE STRUCTURE: MOLECULAR REPLACEMENT        
 200 SOFTWARE USED: DIRECT                                                
 200 STARTING MODEL: NULL                                                 
 200                                                                      
 200 REMARK: NULL                                                         
 280                                                                      
 280 CRYSTAL                                                              
 280 SOLVENT CONTENT, VS   (%): 45.47                                     
 280 MATTHEWS COEFFICIENT, VM (ANGSTROMS**3/DA): 2.26                     
 280                                                                      
 280 CRYSTALLIZATION CONDITIONS: 0.1 M HEPES, 2 M NH4H2PO4, PH 7.5,       
 280  VAPOR DIFFUSION, SITTING DROP, TEMPERATURE 298K                     
 290                                                                      
 290 CRYSTALLOGRAPHIC SYMMETRY                                            
 290 SYMMETRY OPERATORS FOR SPACE GROUP: P 21 21 21                       
 290                                                                      
 290      SYMOP   SYMMETRY                                                
 290     NNNMMM   OPERATOR                                                
 290       1555   X,Y,Z                                                   
 290       2555   -X+1/2,-Y,Z+1/2                                         
 290       3555   -X,Y+1/2,-Z+1/2                                         
 290       4555   X+1/2,-Y+1/2,-Z                                         
 290                                                                      
 290     WHERE NNN -> OPERATOR NUMBER                                     
 290           MMM -> TRANSLATION VECTOR                                  
 290                                                                      
 290 CRYSTALLOGRAPHIC SYMMETRY TRANSFORMATIONS                            
 290 THE FOLLOWING TRANSFORMATIONS OPERATE ON THE ATOM/HETATM             
 290 RECORDS IN THIS ENTRY TO PRODUCE CRYSTALLOGRAPHICALLY                
 290 RELATED MOLECULES.                                                   
 290   SMTRY1   1  1.000000  0.000000  0.000000        0.00000            
 290   SMTRY2   1  0.000000  1.000000  0.000000        0.00000            
 290   SMTRY3   1  0.000000  0.000000  1.000000        0.00000            
 290   SMTRY1   2 -1.000000  0.000000  0.000000       24.91050            
 290   SMTRY2   2  0.000000 -1.000000  0.000000        0.00000            
 290   SMTRY3   2  0.000000  0.000000  1.000000       37.66150            
 290   SMTRY1   3 -1.000000  0.000000  0.000000        0.00000            
 290   SMTRY2   3  0.000000  1.000000  0.000000       33.91850            
 290   SMTRY3   3  0.000000  0.000000 -1.000000       37.66150            
 290   SMTRY1   4  1.000000  0.000000  0.000000       24.91050            
 290   SMTRY2   4  0.000000 -1.000000  0.000000       33.91850            
 290   SMTRY3   4  0.000000  0.000000 -1.000000        0.00000            
 290                                                                      
 290 REMARK: NULL                                                         
 300                                                                      
 300 BIOMOLECULE: 1                                                       
 300 SEE REMARK 350 FOR THE AUTHOR PROVIDED AND/OR PROGRAM                
 300 GENERATED ASSEMBLY INFORMATION FOR THE STRUCTURE IN                  
 300 THIS ENTRY. THE REMARK MAY ALSO PROVIDE INFORMATION ON               
 300 BURIED SURFACE AREA.                                                 
 350                                                                      
 350 COORDINATES FOR A COMPLETE MULTIMER REPRESENTING THE KNOWN           
 350 BIOLOGICALLY SIGNIFICANT OLIGOMERIZATION STATE OF THE                
 350 MOLECULE CAN BE GENERATED BY APPLYING BIOMT TRANSFORMATIONS          
 350 GIVEN BELOW.  BOTH NON-CRYSTALLOGRAPHIC AND                          
 350 CRYSTALLOGRAPHIC OPERATIONS ARE GIVEN.                               
 350                                                                      
 350 BIOMOLECULE: 1                                                       
 350 AUTHOR DETERMINED BIOLOGICAL UNIT: MONOMERIC                         
 350 SOFTWARE DETERMINED QUATERNARY STRUCTURE: MONOMERIC                  
 350 SOFTWARE USED: PISA                                                  
 350 APPLY THE FOLLOWING TO CHAINS: A                                     
 350   BIOMT1   1  1.000000  0.000000  0.000000        0.00000            
 350   BIOMT2   1  0.000000  1.000000  0.000000        0.00000            
 350   BIOMT3   1  0.000000  0.000000  1.000000        0.00000            
 500                                                                      
 500 GEOMETRY AND STEREOCHEMISTRY                                         
 500 SUBTOPIC: COVALENT BOND ANGLES                                       
 500                                                                      
 500 THE STEREOCHEMICAL PARAMETERS OF THE FOLLOWING RESIDUES              
 500 HAVE VALUES WHICH DEVIATE FROM EXPECTED VALUES BY MORE               
 500 THAN 6*RMSD (M=MODEL NUMBER; RES=RESIDUE NAME; C=CHAIN               
 500 IDENTIFIER; SSEQ=SEQUENCE NUMBER; I=INSERTION CODE).                 
 500                                                                      
 500 STANDARD TABLE:                                                      
 500 FORMAT: (10X,I3,1X,A3,1X,A1,I4,A1,3(1X,A4,2X),12X,F5.1)              
 500                                                                      
 500 EXPECTED VALUES PROTEIN: ENGH AND HUBER, 1999                        
 500 EXPECTED VALUES NUCLEIC ACID: CLOWNEY ET AL 1996                     
 500                                                                      
 500  M RES CSSEQI ATM1   ATM2   ATM3                                     
 500    ARG A 229   NE  -  CZ  -  NH1 ANGL. DEV. =   3.4 DEGREES          
 500    ARG A 229   NE  -  CZ  -  NH2 ANGL. DEV. =  -3.4 DEGREES          
 500                                                                      
 500 REMARK: NULL                                                         
 500                                                                      
 500 GEOMETRY AND STEREOCHEMISTRY                                         
 500 SUBTOPIC: TORSION ANGLES                                             
 500                                                                      
 500 TORSION ANGLES OUTSIDE THE EXPECTED RAMACHANDRAN REGIONS:            
 500 (M=MODEL NUMBER; RES=RESIDUE NAME; C=CHAIN IDENTIFIER;               
 500 SSEQ=SEQUENCE NUMBER; I=INSERTION CODE).                             
 500                                                                      
 500 STANDARD TABLE:                                                      
 500 FORMAT:(10X,I3,1X,A3,1X,A1,I4,A1,4X,F7.2,3X,F7.2)                    
 500                                                                      
 500 EXPECTED VALUES: GJ KLEYWEGT AND TA JONES (1996). PHI/PSI-           
 500 CHOLOGY: RAMACHANDRAN REVISITED. STRUCTURE 4, 1395 - 1400            
 500                                                                      
 500  M RES CSSEQI        PSI       PHI                                   
 500    THR A  66     -167.99   -125.29                                   
 500    CYS A  83     -144.46     45.63                                   
 500    GLU A 181     -167.03   -104.31                                   
 500    ARG A 236     -119.82   -114.14                                   
 500                                                                      
 500 REMARK: NULL                                                         
 800                                                                      
 800 SITE                                                                 
 800 SITE_IDENTIFIER: AC1                                                 
 800 EVIDENCE_CODE: SOFTWARE                                              
 800 SITE_DESCRIPTION: BINDING SITE FOR RESIDUE PO4 A 1                   
 800                                                                      
 800 SITE_IDENTIFIER: AC2                                                 
 800 EVIDENCE_CODE: SOFTWARE                                              
 800 SITE_DESCRIPTION: BINDING SITE FOR RESIDUE PO4 A 2                   
 800                                                                      
 800 SITE_IDENTIFIER: AC3                                                 
 800 EVIDENCE_CODE: SOFTWARE                                              
 800 SITE_DESCRIPTION: BINDING SITE FOR RESIDUE 9EP A 308                 

>  <DBREF>
 3NDE A   43   307  UNP    P0C5C1   BLAC_MYCTU      43    307             

>  <SEQADV>
 3NDE ALA A  182  UNP  P0C5C1    GLU   182 ENGINEERED MUTATION            

>  <SEQRES>
   1 A  265  ASP LEU ALA ASP ARG PHE ALA GLU LEU GLU ARG ARG TYR          
   2 A  265  ASP ALA ARG LEU GLY VAL TYR VAL PRO ALA THR GLY THR          
   3 A  265  THR ALA ALA ILE GLU TYR ARG ALA ASP GLU ARG PHE ALA          
   4 A  265  PHE CYS SER THR PHE LYS ALA PRO LEU VAL ALA ALA VAL          
   5 A  265  LEU HIS GLN ASN PRO LEU THR HIS LEU ASP LYS LEU ILE          
   6 A  265  THR TYR THR SER ASP ASP ILE ARG SER ILE SER PRO VAL          
   7 A  265  ALA GLN GLN HIS VAL GLN THR GLY MET THR ILE GLY GLN          
   8 A  265  LEU CYS ASP ALA ALA ILE ARG TYR SER ASP GLY THR ALA          
   9 A  265  ALA ASN LEU LEU LEU ALA ASP LEU GLY GLY PRO GLY GLY          
  10 A  265  GLY THR ALA ALA PHE THR GLY TYR LEU ARG SER LEU GLY          
  11 A  265  ASP THR VAL SER ARG LEU ASP ALA GLU ALA PRO GLU LEU          
  12 A  265  ASN ARG ASP PRO PRO GLY ASP GLU ARG ASP THR THR THR          
  13 A  265  PRO HIS ALA ILE ALA LEU VAL LEU GLN GLN LEU VAL LEU          
  14 A  265  GLY ASN ALA LEU PRO PRO ASP LYS ARG ALA LEU LEU THR          
  15 A  265  ASP TRP MET ALA ARG ASN THR THR GLY ALA LYS ARG ILE          
  16 A  265  ARG ALA GLY PHE PRO ALA ASP TRP LYS VAL ILE ASP LYS          
  17 A  265  THR GLY THR GLY ASP TYR GLY ARG ALA ASN ASP ILE ALA          
  18 A  265  VAL VAL TRP SER PRO THR GLY VAL PRO TYR VAL VAL ALA          
  19 A  265  VAL MET SER ASP ARG ALA GLY GLY GLY TYR ASP ALA GLU          
  20 A  265  PRO ARG GLU ALA LEU LEU ALA GLU ALA ALA THR CYS VAL          
  21 A  265  ALA GLY VAL LEU ALA                                          

>  <HET>
 PO4  A   1       5                                                       
 PO4  A   2       5                                                       
 9EP  A 308      26                                                       

>  <HETNAM>
     PO4 PHOSPHATE ION                                                    
     9EP (2R)-5-[(ACETYLOXY)METHYL]-2-{(1R)-2-OXO-1-[(THIOPHEN-           
   2 9EP  2-YLACETYL)AMINO]ETHYL}-3,6-DIHYDRO-2H-1,3-THIAZINE-4-          
   3 9EP  CARBOXYLIC ACID                                                 

>  <HETSYN>
     9EP CEPHALOTIN, BOUND FORM                                           

>  <FORMUL>
   2  PO4    2(O4 P 3-)                                                   
   4  9EP    C16 H18 N2 O6 S2                                             
   5  HOH   *279(H2 O)                                                    

>  <HELIX>
   1   1 ASP A   43  ASP A   56  1                                  14    
   2   2 CYS A   83  THR A   85  5                                   3    
   3   3 PHE A   86  ASN A   98  1                                  13    
   4   4 PRO A   99  ASP A  104  5                                   6    
   5   5 THR A  110  ILE A  114  5                                   5    
   6   6 VAL A  120  HIS A  124  5                                   5    
   7   7 ILE A  131  TYR A  141  1                                  11    
   8   8 ASP A  143  GLY A  155  1                                  13    
   9   9 GLY A  156  GLY A  159  5                                   4    
  10  10 GLY A  160  LEU A  171  1                                  12    
  11  11 PRO A  183  ARG A  187  5                                   5    
  12  12 THR A  198  LEU A  211  1                                  14    
  13  13 PRO A  216  ARG A  229  1                                  14    
  14  14 ARG A  236  PHE A  241  1                                   6    
  15  15 ARG A  281  GLY A  285  5                                   5    
  16  16 ARG A  291  ALA A  307  1                                  17    

>  <SHEET>
   1   A 5 ILE A  72  TYR A  74  0                                        
   2   A 5 ARG A  58  VAL A  63 -1  N  VAL A  61   O  TYR A  74           
   3   A 5 PRO A 272  ASP A 280 -1  O  MET A 278   N  GLY A  60           
   4   A 5 ARG A 258  TRP A 266 -1  N  VAL A 265   O  TYR A 273           
   5   A 5 LYS A 246  GLY A 254 -1  N  GLY A 252   O  ASN A 260           
   1   B 2 PHE A  80  ALA A  81  0                                        
   2   B 2 THR A 196  THR A 197 -1  O  THR A 197   N  PHE A  80           
   1   C 2 LEU A 106  ILE A 107  0                                        
   2   C 2 MET A 129  THR A 130 -1  O  MET A 129   N  ILE A 107           

>  <LINK>
       OG  SER A  84                 CAO 9EP A 308     1555   1555  1.40  

>  <CISPEP>
   1 ALA A  182    PRO A  183          0         3.98                     

>  <SITE>
   1 AC1 10 ARG A  79  ARG A 187  GLU A 193  ASP A 255                    
   2 AC1 10 TYR A 286  9EP A 308  HOH A 403  HOH A 415                    
   3 AC1 10 HOH A 447  HOH A 663                                          
   1 AC2  4 ARG A  75  GLU A  78  GLU A 184  HOH A 627                    
   1 AC3 16 PO4 A   1  CYS A  83  SER A  84  ILE A 117                    
   2 AC3 16 SER A 142  ASN A 186  GLU A 193  ARG A 236                    
   3 AC3 16 LYS A 250  THR A 251  GLY A 252  THR A 253                    
   4 AC3 16 GLY A 254  HOH A 409  HOH A 433  HOH A 672                    

>  <ORIGX1>
      1.000000  0.000000  0.000000        0.00000                         

>  <ORIGX2>
      0.000000  1.000000  0.000000        0.00000                         

>  <ORIGX3>
      0.000000  0.000000  1.000000        0.00000                         

>  <SCALE1>
      0.020072  0.000000  0.000000        0.00000                         

>  <SCALE2>
      0.000000  0.014741  0.000000        0.00000                         

>  <SCALE3>
      0.000000  0.000000  0.013276        0.00000                         

>  <MASTER>
      291    0    3   16    9    0    8    6 2299    1   37   21          

$$$$
