start_structures/Ligand_Substrate/Ligand_Complex_Stripped/9TG_5W12.pdb
 OpenBabel08222315203D

 29 30  0  0  1  0  0  0  0  0999 V2000
   35.9340   -9.6170  -10.7280 N   0  0  0  0  0  0  0  0  0  0  0  0
   35.5150  -11.0350  -10.7280 C   0  0  2  0  0  0  0  0  0  0  0  0
   34.0150  -11.2770  -10.6430 C   0  0  0  0  0  0  0  0  0  0  0  0
   33.5780  -12.3600  -10.9930 O   0  0  0  0  0  0  0  0  0  0  0  0
   36.2750  -11.8330   -9.6790 C   0  0  0  0  0  0  0  0  0  0  0  0
   37.6640  -11.7680  -10.1200 O   0  0  0  0  0  0  0  0  0  0  0  0
   41.8370   -9.5480   -5.1610 C   0  0  0  0  0  0  0  0  0  0  0  0
   41.0400  -10.7030   -5.0920 C   0  0  0  0  0  0  0  0  0  0  0  0
   40.9040  -11.4710   -6.2560 C   0  0  0  0  0  0  0  0  0  0  0  0
   41.2830  -11.9540   -8.7140 C   0  0  0  0  0  0  0  0  0  0  0  0
   41.4930  -11.1020   -7.4690 C   0  0  0  0  0  0  0  0  0  0  0  0
   42.4450   -9.1630   -6.3770 C   0  0  0  0  0  0  0  0  0  0  0  0
   42.2780   -9.9450   -7.5210 C   0  0  0  0  0  0  0  0  0  0  0  0
   40.3850  -11.1500   -3.7890 C   0  0  0  0  0  0  0  0  0  0  0  0
   40.8770  -10.8020   -2.7010 O   0  0  0  0  0  0  0  0  0  0  0  0
   39.3840  -11.9150   -3.7670 O   0  0  0  0  0  0  0  0  0  0  0  0
   40.1830  -11.4170   -9.6780 C   0  0  1  0  0  0  0  0  0  0  0  0
   38.6340  -11.4290   -9.0890 B   0  0  0  0  0  0  0  0  0  0  0  0
   38.3940  -12.4460   -7.9660 O   0  0  0  0  0  0  0  0  0  0  0  0
   38.2480  -10.0720   -8.4830 O   0  0  0  0  0  0  0  0  0  0  0  0
   41.4100   -9.8290  -11.2280 C   0  0  0  0  0  0  0  0  0  0  0  0
   42.0270  -10.6980  -11.7900 O   0  0  0  0  0  0  0  0  0  0  0  0
   41.6540   -8.4000  -11.7000 C   0  0  0  0  0  0  0  0  0  0  0  0
   42.5880   -7.7740  -10.6900 C   0  0  0  0  0  0  0  0  0  0  0  0
   42.3890   -7.1210   -9.4790 C   0  0  0  0  0  0  0  0  0  0  0  0
   43.5960   -6.7520   -8.8480 C   0  0  0  0  0  0  0  0  0  0  0  0
   44.7250   -7.1210   -9.5760 C   0  0  0  0  0  0  0  0  0  0  0  0
   44.2760   -7.9400  -11.0440 S   0  0  0  0  0  0  0  0  0  0  0  0
   40.5650  -10.0760  -10.2070 N   0  0  0  0  0  0  0  0  0  0  0  0
  2  1  1  1  0  0  0
  2  3  1  0  0  0  0
  2  5  1  0  0  0  0
  4  3  2  0  0  0  0
  6  5  1  0  0  0  0
  6 18  1  0  0  0  0
  7  8  1  0  0  0  0
  8 14  1  0  0  0  0
  9  8  2  0  0  0  0
 10 11  1  0  0  0  0
 11  9  1  0  0  0  0
 12  7  2  0  0  0  0
 13 11  2  0  0  0  0
 13 12  1  0  0  0  0
 14 16  2  0  0  0  0
 14 15  1  0  0  0  0
 17 18  1  0  0  0  0
 17 10  1  1  0  0  0
 18 20  1  0  0  0  0
 18 19  1  0  0  0  0
 21 29  1  0  0  0  0
 22 21  2  0  0  0  0
 23 21  1  0  0  0  0
 23 24  1  0  0  0  0
 24 25  2  0  0  0  0
 25 26  1  0  0  0  0
 27 26  2  0  0  0  0
 28 24  1  0  0  0  0
 28 27  1  0  0  0  0
 29 17  1  0  0  0  0
M  END
>  <HEADER>
    HYDROLASE/HYDROLASE INHIBITOR           01-JUN-17   5W12              

>  <TITLE>
    ADC-7 IN COMPLEX WITH BORONIC ACID TRANSITION STATE INHIBITOR EC04    

>  <COMPND>
    MOL_ID: 1;                                                            
   2 MOLECULE: BETA-LACTAMASE;                                            
   3 CHAIN: A, B, C, D;                                                   
   4 EC: 3.5.2.6;                                                         
   5 ENGINEERED: YES                                                      

>  <SOURCE>
    MOL_ID: 1;                                                            
   2 ORGANISM_SCIENTIFIC: ACINETOBACTER BAUMANNII;                        
   3 ORGANISM_TAXID: 470;                                                 
   4 EXPRESSION_SYSTEM: ESCHERICHIA COLI;                                 
   5 EXPRESSION_SYSTEM_TAXID: 469008;                                     
   6 EXPRESSION_SYSTEM_STRAIN: BL21(DE3);                                 
   7 EXPRESSION_SYSTEM_VECTOR_TYPE: PLASMID;                              
   8 EXPRESSION_SYSTEM_PLASMID: PET28A                                    

>  <KEYWDS>
    INHIBITOR, BETA-LACTAMASE, BATSI, EC04, HYDROLASE-HYDROLASE INHIBITOR 
   2 COMPLEX                                                              

>  <EXPDTA>
    X-RAY DIFFRACTION                                                     

>  <AUTHOR>
    K.A.SMOLEN,R.A.POWERS,B.J.WALLAR                                      

>  <REVDAT>
   4   11-DEC-19 5W12    1       REMARK                                   
   3   21-MAR-18 5W12    1       JRNL                                     
   2   20-DEC-17 5W12    1       JRNL                                     
   1   29-NOV-17 5W12    0                                                

>  <JRNL>
      AUTH   E.CASELLI,C.ROMAGNOLI,R.A.POWERS,M.A.TARACILA,A.A.BOUZA,     
      AUTH 2 H.C.SWANSON,K.A.SMOLEN,F.FINI,B.J.WALLAR,R.A.BONOMO,F.PRATI  
      TITL   INHIBITION OF ACINETOBACTER-DERIVED CEPHALOSPORINASE:        
      TITL 2 EXPLORING THE CARBOXYLATE RECOGNITION SITE USING NOVEL       
      TITL 3 BETA-LACTAMASE INHIBITORS.                                   
      REF    ACS INFECT DIS                V.   4   337 2018              
      REFN                   ESSN 2373-8227                               
      PMID   29144725                                                     
      DOI    10.1021/ACSINFECDIS.7B00153                                  

>  <REMARK>
   2                                                                      
   2 RESOLUTION.    1.88 ANGSTROMS.                                       
   3                                                                      
   3 REFINEMENT.                                                          
   3   PROGRAM     : REFMAC 5.8.0158                                      
   3   AUTHORS     : MURSHUDOV,SKUBAK,LEBEDEV,PANNU,STEINER,              
   3               : NICHOLLS,WINN,LONG,VAGIN                             
   3                                                                      
   3    REFINEMENT TARGET : MAXIMUM LIKELIHOOD                            
   3                                                                      
   3  DATA USED IN REFINEMENT.                                            
   3   RESOLUTION RANGE HIGH (ANGSTROMS) : 1.88                           
   3   RESOLUTION RANGE LOW  (ANGSTROMS) : 98.28                          
   3   DATA CUTOFF            (SIGMA(F)) : NULL                           
   3   COMPLETENESS FOR RANGE        (%) : 99.0                           
   3   NUMBER OF REFLECTIONS             : 107968                         
   3                                                                      
   3  FIT TO DATA USED IN REFINEMENT.                                     
   3   CROSS-VALIDATION METHOD          : THROUGHOUT                      
   3   FREE R VALUE TEST SET SELECTION  : RANDOM                          
   3   R VALUE     (WORKING + TEST SET) : 0.204                           
   3   R VALUE            (WORKING SET) : 0.201                           
   3   FREE R VALUE                     : 0.255                           
   3   FREE R VALUE TEST SET SIZE   (%) : 5.000                           
   3   FREE R VALUE TEST SET COUNT      : 5668                            
   3                                                                      
   3  FIT IN THE HIGHEST RESOLUTION BIN.                                  
   3   TOTAL NUMBER OF BINS USED           : 20                           
   3   BIN RESOLUTION RANGE HIGH       (A) : 1.88                         
   3   BIN RESOLUTION RANGE LOW        (A) : 1.93                         
   3   REFLECTION IN BIN     (WORKING SET) : 7939                         
   3   BIN COMPLETENESS (WORKING+TEST) (%) : 98.56                        
   3   BIN R VALUE           (WORKING SET) : 0.3030                       
   3   BIN FREE R VALUE SET COUNT          : 423                          
   3   BIN FREE R VALUE                    : 0.3150                       
   3                                                                      
   3  NUMBER OF NON-HYDROGEN ATOMS USED IN REFINEMENT.                    
   3   PROTEIN ATOMS            : 11151                                   
   3   NUCLEIC ACID ATOMS       : 0                                       
   3   HETEROGEN ATOMS          : 92                                      
   3   SOLVENT ATOMS            : 516                                     
   3                                                                      
   3  B VALUES.                                                           
   3   FROM WILSON PLOT           (A**2) : NULL                           
   3   MEAN B VALUE      (OVERALL, A**2) : 39.22                          
   3   OVERALL ANISOTROPIC B VALUE.                                       
   3    B11 (A**2) : 0.13000                                              
   3    B22 (A**2) : -1.89000                                             
   3    B33 (A**2) : 0.71000                                              
   3    B12 (A**2) : 0.00000                                              
   3    B13 (A**2) : 0.94000                                              
   3    B23 (A**2) : 0.00000                                              
   3                                                                      
   3  ESTIMATED OVERALL COORDINATE ERROR.                                 
   3   ESU BASED ON R VALUE                            (A): 0.170         
   3   ESU BASED ON FREE R VALUE                       (A): 0.162         
   3   ESU BASED ON MAXIMUM LIKELIHOOD                 (A): 0.136         
   3   ESU FOR B VALUES BASED ON MAXIMUM LIKELIHOOD (A**2): 4.708         
   3                                                                      
   3 CORRELATION COEFFICIENTS.                                            
   3   CORRELATION COEFFICIENT FO-FC      : 0.955                         
   3   CORRELATION COEFFICIENT FO-FC FREE : 0.928                         
   3                                                                      
   3  RMS DEVIATIONS FROM IDEAL VALUES        COUNT    RMS    WEIGHT      
   3   BOND LENGTHS REFINED ATOMS        (A): 11552 ; 0.018 ; 0.020       
   3   BOND LENGTHS OTHERS               (A): 10496 ; 0.002 ; 0.020       
   3   BOND ANGLES REFINED ATOMS   (DEGREES): 15715 ; 1.865 ; 1.972       
   3   BOND ANGLES OTHERS          (DEGREES): 24515 ; 1.094 ; 3.000       
   3   TORSION ANGLES, PERIOD 1    (DEGREES):  1425 ; 7.126 ; 5.000       
   3   TORSION ANGLES, PERIOD 2    (DEGREES):   501 ;40.790 ;25.729       
   3   TORSION ANGLES, PERIOD 3    (DEGREES):  1926 ;15.297 ;15.000       
   3   TORSION ANGLES, PERIOD 4    (DEGREES):    23 ;17.046 ;15.000       
   3   CHIRAL-CENTER RESTRAINTS       (A**3):  1729 ; 0.117 ; 0.200       
   3   GENERAL PLANES REFINED ATOMS      (A): 12798 ; 0.010 ; 0.021       
   3   GENERAL PLANES OTHERS             (A):  2186 ; 0.002 ; 0.020       
   3   NON-BONDED CONTACTS REFINED ATOMS (A):  NULL ;  NULL ;  NULL       
   3   NON-BONDED CONTACTS OTHERS        (A):  NULL ;  NULL ;  NULL       
   3   NON-BONDED TORSION REFINED ATOMS  (A):  NULL ;  NULL ;  NULL       
   3   NON-BONDED TORSION OTHERS         (A):  NULL ;  NULL ;  NULL       
   3   H-BOND (X...Y) REFINED ATOMS      (A):  NULL ;  NULL ;  NULL       
   3   H-BOND (X...Y) OTHERS             (A):  NULL ;  NULL ;  NULL       
   3   POTENTIAL METAL-ION REFINED ATOMS (A):  NULL ;  NULL ;  NULL       
   3   POTENTIAL METAL-ION OTHERS        (A):  NULL ;  NULL ;  NULL       
   3   SYMMETRY VDW REFINED ATOMS        (A):  NULL ;  NULL ;  NULL       
   3   SYMMETRY VDW OTHERS               (A):  NULL ;  NULL ;  NULL       
   3   SYMMETRY H-BOND REFINED ATOMS     (A):  NULL ;  NULL ;  NULL       
   3   SYMMETRY H-BOND OTHERS            (A):  NULL ;  NULL ;  NULL       
   3   SYMMETRY METAL-ION REFINED ATOMS  (A):  NULL ;  NULL ;  NULL       
   3   SYMMETRY METAL-ION OTHERS         (A):  NULL ;  NULL ;  NULL       
   3                                                                      
   3  ISOTROPIC THERMAL FACTOR RESTRAINTS.     COUNT   RMS    WEIGHT      
   3   MAIN-CHAIN BOND REFINED ATOMS  (A**2):  5703 ; 3.411 ; 3.847       
   3   MAIN-CHAIN BOND OTHER ATOMS    (A**2):  5702 ; 3.411 ; 3.847       
   3   MAIN-CHAIN ANGLE REFINED ATOMS (A**2):  7127 ; 4.460 ; 5.753       
   3   MAIN-CHAIN ANGLE OTHER ATOMS   (A**2):  7128 ; 4.460 ; 5.753       
   3   SIDE-CHAIN BOND REFINED ATOMS  (A**2):  5849 ; 3.694 ; 4.216       
   3   SIDE-CHAIN BOND OTHER ATOMS    (A**2):  5850 ; 3.694 ; 4.216       
   3   SIDE-CHAIN ANGLE REFINED ATOMS (A**2):  NULL ;  NULL ;  NULL       
   3   SIDE-CHAIN ANGLE OTHER ATOMS   (A**2):  8589 ; 5.318 ; 6.189       
   3   LONG RANGE B REFINED ATOMS     (A**2): 12805 ; 6.761 ;45.806       
   3   LONG RANGE B OTHER ATOMS       (A**2): 12733 ; 6.747 ;45.752       
   3                                                                      
   3 ANISOTROPIC THERMAL FACTOR RESTRAINTS.    COUNT   RMS   WEIGHT       
   3   RIGID-BOND RESTRAINTS          (A**2):  NULL ;  NULL ;  NULL       
   3   SPHERICITY; FREE ATOMS         (A**2):  NULL ;  NULL ;  NULL       
   3   SPHERICITY; BONDED ATOMS       (A**2):  NULL ;  NULL ;  NULL       
   3                                                                      
   3  NCS RESTRAINTS STATISTICS                                           
   3   NUMBER OF DIFFERENT NCS GROUPS : NULL                              
   3                                                                      
   3  TLS DETAILS                                                         
   3   NUMBER OF TLS GROUPS  : NULL                                       
   3                                                                      
   3  BULK SOLVENT MODELLING.                                             
   3   METHOD USED : BABINET MODEL WITH MASK                              
   3   PARAMETERS FOR MASK CALCULATION                                    
   3   VDW PROBE RADIUS   : 1.20                                          
   3   ION PROBE RADIUS   : 0.80                                          
   3   SHRINKAGE RADIUS   : 0.80                                          
   3                                                                      
   3  OTHER REFINEMENT REMARKS: HYDROGENS HAVE BEEN ADDED IN THE RIDING   
   3  POSITIONS                                                           
   4                                                                      
   4 5W12 COMPLIES WITH FORMAT V. 3.30, 13-JUL-11                         
 100                                                                      
 100 THIS ENTRY HAS BEEN PROCESSED BY RCSB ON 07-JUN-17.                  
 100 THE DEPOSITION ID IS D_1000227837.                                   
 200                                                                      
 200 EXPERIMENTAL DETAILS                                                 
 200  EXPERIMENT TYPE                : X-RAY DIFFRACTION                  
 200  DATE OF DATA COLLECTION        : 08-AUG-14                          
 200  TEMPERATURE           (KELVIN) : 100                                
 200  PH                             : 5.0                                
 200  NUMBER OF CRYSTALS USED        : 1                                  
 200                                                                      
 200  SYNCHROTRON              (Y/N) : Y                                  
 200  RADIATION SOURCE               : APS                                
 200  BEAMLINE                       : 21-ID-G                            
 200  X-RAY GENERATOR MODEL          : NULL                               
 200  MONOCHROMATIC OR LAUE    (M/L) : M                                  
 200  WAVELENGTH OR RANGE        (A) : 0.97856                            
 200  MONOCHROMATOR                  : NULL                               
 200  OPTICS                         : NULL                               
 200                                                                      
 200  DETECTOR TYPE                  : CCD                                
 200  DETECTOR MANUFACTURER          : RAYONIX MX-300                     
 200  INTENSITY-INTEGRATION SOFTWARE : XDS                                
 200  DATA SCALING SOFTWARE          : XSCALE                             
 200                                                                      
 200  NUMBER OF UNIQUE REFLECTIONS   : 113662                             
 200  RESOLUTION RANGE HIGH      (A) : 1.880                              
 200  RESOLUTION RANGE LOW       (A) : 98.285                             
 200  REJECTION CRITERIA  (SIGMA(I)) : NULL                               
 200                                                                      
 200 OVERALL.                                                             
 200  COMPLETENESS FOR RANGE     (%) : 99.0                               
 200  DATA REDUNDANCY                : 4.200                              
 200  R MERGE                    (I) : 0.05900                            
 200  R SYM                      (I) : NULL                               
 200  <I/SIGMA(I)> FOR THE DATA SET  : 15.7000                            
 200                                                                      
 200 IN THE HIGHEST RESOLUTION SHELL.                                     
 200  HIGHEST RESOLUTION SHELL, RANGE HIGH (A) : 1.88                     
 200  HIGHEST RESOLUTION SHELL, RANGE LOW  (A) : 1.89                     
 200  COMPLETENESS FOR SHELL     (%) : 98.1                               
 200  DATA REDUNDANCY IN SHELL       : 4.20                               
 200  R MERGE FOR SHELL          (I) : 0.65300                            
 200  R SYM FOR SHELL            (I) : NULL                               
 200  <I/SIGMA(I)> FOR SHELL         : 2.200                              
 200                                                                      
 200 DIFFRACTION PROTOCOL: SINGLE WAVELENGTH                              
 200 METHOD USED TO DETERMINE THE STRUCTURE: MOLECULAR REPLACEMENT        
 200 SOFTWARE USED: PHASER                                                
 200 STARTING MODEL: 4U0T                                                 
 200                                                                      
 200 REMARK: NULL                                                         
 280                                                                      
 280 CRYSTAL                                                              
 280 SOLVENT CONTENT, VS   (%): 43.87                                     
 280 MATTHEWS COEFFICIENT, VM (ANGSTROMS**3/DA): 2.19                     
 280                                                                      
 280 CRYSTALLIZATION CONDITIONS: ADC-7 (3MG/ML) IN 25% W/V POLYETHYLENE   
 280  GLYCOL (PEG) 1500, 0.1 M SUCCINATE/ PHOSPHATE/ GLYCINE, PH 5.0,     
 280  VAPOR DIFFUSION, HANGING DROP, TEMPERATURE 298K                     
 290                                                                      
 290 CRYSTALLOGRAPHIC SYMMETRY                                            
 290 SYMMETRY OPERATORS FOR SPACE GROUP: P 1 21 1                         
 290                                                                      
 290      SYMOP   SYMMETRY                                                
 290     NNNMMM   OPERATOR                                                
 290       1555   X,Y,Z                                                   
 290       2555   -X,Y+1/2,-Z                                             
 290                                                                      
 290     WHERE NNN -> OPERATOR NUMBER                                     
 290           MMM -> TRANSLATION VECTOR                                  
 290                                                                      
 290 CRYSTALLOGRAPHIC SYMMETRY TRANSFORMATIONS                            
 290 THE FOLLOWING TRANSFORMATIONS OPERATE ON THE ATOM/HETATM             
 290 RECORDS IN THIS ENTRY TO PRODUCE CRYSTALLOGRAPHICALLY                
 290 RELATED MOLECULES.                                                   
 290   SMTRY1   1  1.000000  0.000000  0.000000        0.00000            
 290   SMTRY2   1  0.000000  1.000000  0.000000        0.00000            
 290   SMTRY3   1  0.000000  0.000000  1.000000        0.00000            
 290   SMTRY1   2 -1.000000  0.000000  0.000000        0.00000            
 290   SMTRY2   2  0.000000  1.000000  0.000000       40.65100            
 290   SMTRY3   2  0.000000  0.000000 -1.000000        0.00000            
 290                                                                      
 290 REMARK: NULL                                                         
 300                                                                      
 300 BIOMOLECULE: 1, 2, 3, 4                                              
 300 SEE REMARK 350 FOR THE AUTHOR PROVIDED AND/OR PROGRAM                
 300 GENERATED ASSEMBLY INFORMATION FOR THE STRUCTURE IN                  
 300 THIS ENTRY. THE REMARK MAY ALSO PROVIDE INFORMATION ON               
 300 BURIED SURFACE AREA.                                                 
 350                                                                      
 350 COORDINATES FOR A COMPLETE MULTIMER REPRESENTING THE KNOWN           
 350 BIOLOGICALLY SIGNIFICANT OLIGOMERIZATION STATE OF THE                
 350 MOLECULE CAN BE GENERATED BY APPLYING BIOMT TRANSFORMATIONS          
 350 GIVEN BELOW.  BOTH NON-CRYSTALLOGRAPHIC AND                          
 350 CRYSTALLOGRAPHIC OPERATIONS ARE GIVEN.                               
 350                                                                      
 350 BIOMOLECULE: 1                                                       
 350 AUTHOR DETERMINED BIOLOGICAL UNIT: MONOMERIC                         
 350 APPLY THE FOLLOWING TO CHAINS: A                                     
 350   BIOMT1   1  1.000000  0.000000  0.000000        0.00000            
 350   BIOMT2   1  0.000000  1.000000  0.000000        0.00000            
 350   BIOMT3   1  0.000000  0.000000  1.000000        0.00000            
 350                                                                      
 350 BIOMOLECULE: 2                                                       
 350 AUTHOR DETERMINED BIOLOGICAL UNIT: MONOMERIC                         
 350 APPLY THE FOLLOWING TO CHAINS: B                                     
 350   BIOMT1   1  1.000000  0.000000  0.000000        0.00000            
 350   BIOMT2   1  0.000000  1.000000  0.000000        0.00000            
 350   BIOMT3   1  0.000000  0.000000  1.000000        0.00000            
 350                                                                      
 350 BIOMOLECULE: 3                                                       
 350 AUTHOR DETERMINED BIOLOGICAL UNIT: MONOMERIC                         
 350 APPLY THE FOLLOWING TO CHAINS: C                                     
 350   BIOMT1   1  1.000000  0.000000  0.000000        0.00000            
 350   BIOMT2   1  0.000000  1.000000  0.000000        0.00000            
 350   BIOMT3   1  0.000000  0.000000  1.000000        0.00000            
 350                                                                      
 350 BIOMOLECULE: 4                                                       
 350 AUTHOR DETERMINED BIOLOGICAL UNIT: MONOMERIC                         
 350 APPLY THE FOLLOWING TO CHAINS: D                                     
 350   BIOMT1   1  1.000000  0.000000  0.000000        0.00000            
 350   BIOMT2   1  0.000000  1.000000  0.000000        0.00000            
 350   BIOMT3   1  0.000000  0.000000  1.000000        0.00000            
 465                                                                      
 465 MISSING RESIDUES                                                     
 465 THE FOLLOWING RESIDUES WERE NOT LOCATED IN THE                       
 465 EXPERIMENT. (M=MODEL NUMBER; RES=RESIDUE NAME; C=CHAIN               
 465 IDENTIFIER; SSSEQ=SEQUENCE NUMBER; I=INSERTION CODE.)                
 465                                                                      
 465   M RES C SSSEQI                                                     
 465     MET A    -1                                                      
 465     ASP A     0                                                      
 465     ASN A     1                                                      
 465     THR A     2                                                      
 465     PRO A     3                                                      
 465     LYS A     4                                                      
 465     ASP A     5                                                      
 465     LYS A   359                                                      
 465     MET B    -1                                                      
 465     ASP B     0                                                      
 465     ASN B     1                                                      
 465     MET C    -1                                                      
 465     ASP C     0                                                      
 465     ASN C     1                                                      
 465     THR C     2                                                      
 465     MET D    -1                                                      
 465     ASP D     0                                                      
 465     ASN D     1                                                      
 465     THR D     2                                                      
 465     LYS D   358                                                      
 465     LYS D   359                                                      
 470                                                                      
 470 MISSING ATOM                                                         
 470 THE FOLLOWING RESIDUES HAVE MISSING ATOMS (M=MODEL NUMBER;           
 470 RES=RESIDUE NAME; C=CHAIN IDENTIFIER; SSEQ=SEQUENCE NUMBER;          
 470 I=INSERTION CODE):                                                   
 470   M RES CSSEQI  ATOMS                                                
 470     GLN A   6    CG   CD   OE1  NE2                                  
 470     GLU A   7    CG   CD   OE1  OE2                                  
 470     LYS A  10    CG   CD   CE   NZ                                   
 470     LYS A  37    CG   CD   CE   NZ                                   
 470     LYS A  52    CG   CD   CE   NZ                                   
 470     LYS A  94    CG   CD   CE   NZ                                   
 470     LEU A  96    CG   CD1  CD2                                       
 470     LYS A  97    CG   CD   CE   NZ                                   
 470     GLN A 129    CG   CD   OE1  NE2                                  
 470     ASN A 167    CG   OD1  ND2                                       
 470     LYS A 193    CG   CD   CE   NZ                                   
 470     ASP A 247    CG   OD1  OD2                                       
 470     ARG A 250    CG   CD   NE   CZ   NH1  NH2                        
 470     GLN A 257    CG   CD   OE1  NE2                                  
 470     GLU A 289    CG   CD   OE1  OE2                                  
 470     LYS A 358    CG   CD   CE   NZ                                   
 470     LYS B  10    CG   CD   CE   NZ                                   
 470     GLN B 129    CG   CD   OE1  NE2                                  
 470     LYS B 193    CG   CD   CE   NZ                                   
 470     LYS B 303    CG   CD   CE   NZ                                   
 470     GLU B 344    CG   CD   OE1  OE2                                  
 470     LYS B 359    CG   CD   CE   NZ                                   
 470     GLU C   7    CG   CD   OE1  OE2                                  
 470     LYS C  10    CG   CD   CE   NZ                                   
 470     GLU C  21    CG   CD   OE1  OE2                                  
 470     LYS C  94    CG   CD   CE   NZ                                   
 470     LYS C  97    CG   CD   CE   NZ                                   
 470     GLN C 103    CG   CD   OE1  NE2                                  
 470     GLN C 129    CG   CD   OE1  NE2                                  
 470     LYS C 193    CG   CD   CE   NZ                                   
 470     GLU C 289    CG   CD   OE1  OE2                                  
 470     GLU C 344    CG   CD   OE1  OE2                                  
 470     LYS D   4    CG   CD   CE   NZ                                   
 470     GLN D   6    CG   CD   OE1  NE2                                  
 470     GLU D   7    CG   CD   OE1  OE2                                  
 470     LYS D  10    CG   CD   CE   NZ                                   
 470     GLU D  21    CG   CD   OE1  OE2                                  
 470     LYS D  37    CG   CD   CE   NZ                                   
 470     LYS D 139    CG   CD   CE   NZ                                   
 470     GLU D 146    CG   CD   OE1  OE2                                  
 470     LYS D 193    CG   CD   CE   NZ                                   
 470     GLN D 249    CG   CD   OE1  NE2                                  
 470     LYS D 303    CG   CD   CE   NZ                                   
 470     GLU D 304    CG   CD   OE1  OE2                                  
 470     SER D 306    OG                                                  
 470     GLU D 344    CG   CD   OE1  OE2                                  
 470     ILE D 357    CG1  CG2  CD1                                       
 500                                                                      
 500 GEOMETRY AND STEREOCHEMISTRY                                         
 500 SUBTOPIC: CLOSE CONTACTS IN SAME ASYMMETRIC UNIT                     
 500                                                                      
 500 THE FOLLOWING ATOMS ARE IN CLOSE CONTACT.                            
 500                                                                      
 500  ATM1  RES C  SSEQI   ATM2  RES C  SSEQI           DISTANCE          
 500   OD2  ASP A    87     OH   TYR A    92              2.16            
 500                                                                      
 500 REMARK: NULL                                                         
 500                                                                      
 500 GEOMETRY AND STEREOCHEMISTRY                                         
 500 SUBTOPIC: COVALENT BOND ANGLES                                       
 500                                                                      
 500 THE STEREOCHEMICAL PARAMETERS OF THE FOLLOWING RESIDUES              
 500 HAVE VALUES WHICH DEVIATE FROM EXPECTED VALUES BY MORE               
 500 THAN 6*RMSD (M=MODEL NUMBER; RES=RESIDUE NAME; C=CHAIN               
 500 IDENTIFIER; SSEQ=SEQUENCE NUMBER; I=INSERTION CODE).                 
 500                                                                      
 500 STANDARD TABLE:                                                      
 500 FORMAT: (10X,I3,1X,A3,1X,A1,I4,A1,3(1X,A4,2X),12X,F5.1)              
 500                                                                      
 500 EXPECTED VALUES PROTEIN: ENGH AND HUBER, 1999                        
 500 EXPECTED VALUES NUCLEIC ACID: CLOWNEY ET AL 1996                     
 500                                                                      
 500  M RES CSSEQI ATM1   ATM2   ATM3                                     
 500    ARG A 346   NE  -  CZ  -  NH1 ANGL. DEV. =   3.8 DEGREES          
 500    ARG B 340   NE  -  CZ  -  NH1 ANGL. DEV. =   3.8 DEGREES          
 500    ARG B 340   NE  -  CZ  -  NH2 ANGL. DEV. =  -4.6 DEGREES          
 500    ASP D 285   CB  -  CG  -  OD1 ANGL. DEV. =   5.7 DEGREES          
 500                                                                      
 500 REMARK: NULL                                                         
 500                                                                      
 500 GEOMETRY AND STEREOCHEMISTRY                                         
 500 SUBTOPIC: TORSION ANGLES                                             
 500                                                                      
 500 TORSION ANGLES OUTSIDE THE EXPECTED RAMACHANDRAN REGIONS:            
 500 (M=MODEL NUMBER; RES=RESIDUE NAME; C=CHAIN IDENTIFIER;               
 500 SSEQ=SEQUENCE NUMBER; I=INSERTION CODE).                             
 500                                                                      
 500 STANDARD TABLE:                                                      
 500 FORMAT:(10X,I3,1X,A3,1X,A1,I4,A1,4X,F7.2,3X,F7.2)                    
 500                                                                      
 500 EXPECTED VALUES: GJ KLEYWEGT AND TA JONES (1996). PHI/PSI-           
 500 CHOLOGY: RAMACHANDRAN REVISITED. STRUCTURE 4, 1395 - 1400            
 500                                                                      
 500  M RES CSSEQI        PSI       PHI                                   
 500    ASP A  87      172.96    -59.70                                   
 500    GLU A  95      -13.71    -39.69                                   
 500    LYS A  97      149.76    -29.66                                   
 500    ASN A  98       11.14     49.85                                   
 500    PRO A 100       -7.45    -53.98                                   
 500    ASN A 116       60.97   -153.74                                   
 500    GLN A 126      -48.77   -140.26                                   
 500    LYS A 141      -59.07   -145.87                                   
 500    TYR A 222       24.78   -162.37                                   
 500    ASN A 263     -131.86     46.75                                   
 500    ALA A 268     -161.42   -107.90                                   
 500    SER A 302      -68.95   -106.77                                   
 500    ASN B 116       60.20   -158.12                                   
 500    GLN B 126      -52.45   -125.84                                   
 500    LYS B 141      -84.25   -127.49                                   
 500    TYR B 222       20.30   -159.06                                   
 500    ASN B 263     -116.35     52.12                                   
 500    ASN C  36       17.73     59.98                                   
 500    ASN C  98        5.73     89.88                                   
 500    TYR C 112       30.96     71.33                                   
 500    ASN C 116       45.92   -155.12                                   
 500    GLN C 126      -58.83   -146.43                                   
 500    LYS C 141     -111.93   -146.61                                   
 500    PRO C 143      128.57    -38.40                                   
 500    ASN C 167       31.33     79.28                                   
 500    TYR C 222       20.21   -153.81                                   
 500    ASN C 240       56.29   -146.10                                   
 500    THR C 246      -59.50    -24.68                                   
 500    ASN C 263     -129.43     50.92                                   
 500    SER C 302      -85.28    -75.22                                   
 500    LYS C 312      136.97   -170.98                                   
 500    ASN D 116       53.72   -159.47                                   
 500    GLN D 126      -59.33   -138.93                                   
 500    LYS D 141      -79.25   -145.48                                   
 500    PRO D 143      114.15    -38.62                                   
 500    TYR D 222       21.77   -160.00                                   
 500    ASN D 263     -127.06     61.50                                   
 500    SER D 302      -51.91   -129.24                                   
 500                                                                      
 500 REMARK: NULL                                                         
 525                                                                      
 525 SOLVENT                                                              
 525                                                                      
 525 THE SOLVENT MOLECULES HAVE CHAIN IDENTIFIERS THAT                    
 525 INDICATE THE POLYMER CHAIN WITH WHICH THEY ARE MOST                  
 525 CLOSELY ASSOCIATED. THE REMARK LISTS ALL THE SOLVENT                 
 525 MOLECULES WHICH ARE MORE THAN 5A AWAY FROM THE                       
 525 NEAREST POLYMER CHAIN (M = MODEL NUMBER;                             
 525 RES=RESIDUE NAME; C=CHAIN IDENTIFIER; SSEQ=SEQUENCE                  
 525 NUMBER; I=INSERTION CODE):                                           
 525                                                                      
 525  M RES CSSEQI                                                        
 525    HOH B 739        DISTANCE =  6.06 ANGSTROMS                       
 800                                                                      
 800 SITE                                                                 
 800 SITE_IDENTIFIER: AC1                                                 
 800 EVIDENCE_CODE: SOFTWARE                                              
 800 SITE_DESCRIPTION: binding site for residue 9TG A 401                 
 800                                                                      
 800 SITE_IDENTIFIER: AC2                                                 
 800 EVIDENCE_CODE: SOFTWARE                                              
 800 SITE_DESCRIPTION: binding site for Di-peptide 9TG B 401 and SER B    
 800  64                                                                  
 800                                                                      
 800 SITE_IDENTIFIER: AC3                                                 
 800 EVIDENCE_CODE: SOFTWARE                                              
 800 SITE_DESCRIPTION: binding site for Di-peptide 9TG C 401 and SER C    
 800  64                                                                  
 800                                                                      
 800 SITE_IDENTIFIER: AC4                                                 
 800 EVIDENCE_CODE: SOFTWARE                                              
 800 SITE_DESCRIPTION: binding site for Di-peptide 9TG D 401 and SER D    
 800  64                                                                  
 900                                                                      
 900 RELATED ENTRIES                                                      
 900 RELATED ID: 5W13   RELATED DB: PDB                                   
 900 RELATED ID: 5W14   RELATED DB: PDB                                   

>  <DBREF>
 5W12 A    0   359  UNP    Q6DRA1   Q6DRA1_ACIBA    24    383             
 5W12 B    0   359  UNP    Q6DRA1   Q6DRA1_ACIBA    24    383             
 5W12 C    0   359  UNP    Q6DRA1   Q6DRA1_ACIBA    24    383             
 5W12 D    0   359  UNP    Q6DRA1   Q6DRA1_ACIBA    24    383             

>  <SEQADV>
 5W12 MET A   -1  UNP  Q6DRA1              INITIATING METHIONINE          
 5W12 MET B   -1  UNP  Q6DRA1              INITIATING METHIONINE          
 5W12 MET C   -1  UNP  Q6DRA1              INITIATING METHIONINE          
 5W12 MET D   -1  UNP  Q6DRA1              INITIATING METHIONINE          

>  <SEQRES>
   1 A  361  MET ASP ASN THR PRO LYS ASP GLN GLU ILE LYS LYS LEU          
   2 A  361  VAL ASP GLN ASN PHE LYS PRO LEU LEU GLU LYS TYR ASP          
   3 A  361  VAL PRO GLY MET ALA VAL GLY VAL ILE GLN ASN ASN LYS          
   4 A  361  LYS TYR GLU MET TYR TYR GLY LEU GLN SER VAL GLN ASP          
   5 A  361  LYS LYS ALA VAL ASN SER ASN THR ILE PHE GLU LEU GLY          
   6 A  361  SER VAL SER LYS LEU PHE THR ALA THR ALA GLY GLY TYR          
   7 A  361  ALA LYS ASN LYS GLY LYS ILE SER PHE ASP ASP THR PRO          
   8 A  361  GLY LYS TYR TRP LYS GLU LEU LYS ASN THR PRO ILE ASP          
   9 A  361  GLN VAL ASN LEU LEU GLN LEU ALA THR TYR THR SER GLY          
  10 A  361  ASN LEU ALA LEU GLN PHE PRO ASP GLU VAL GLN THR ASP          
  11 A  361  GLN GLN VAL LEU THR PHE PHE LYS ASP TRP LYS PRO LYS          
  12 A  361  ASN PRO ILE GLY GLU TYR ARG GLN TYR SER ASN PRO SER          
  13 A  361  ILE GLY LEU PHE GLY LYS VAL VAL ALA LEU SER MET ASN          
  14 A  361  LYS PRO PHE ASP GLN VAL LEU GLU LYS THR ILE PHE PRO          
  15 A  361  ALA LEU GLY LEU LYS HIS SER TYR VAL ASN VAL PRO LYS          
  16 A  361  THR GLN MET GLN ASN TYR ALA PHE GLY TYR ASN GLN GLU          
  17 A  361  ASN GLN PRO ILE ARG VAL ASN PRO GLY PRO LEU ASP ALA          
  18 A  361  PRO ALA TYR GLY VAL LYS SER THR LEU PRO ASP MET LEU          
  19 A  361  SER PHE ILE HIS ALA ASN LEU ASN PRO GLN LYS TYR PRO          
  20 A  361  THR ASP ILE GLN ARG ALA ILE ASN GLU THR HIS GLN GLY          
  21 A  361  ARG TYR GLN VAL ASN THR MET TYR GLN ALA LEU GLY TRP          
  22 A  361  GLU GLU PHE SER TYR PRO ALA THR LEU GLN THR LEU LEU          
  23 A  361  ASP SER ASN SER GLU GLN ILE VAL MET LYS PRO ASN LYS          
  24 A  361  VAL THR ALA ILE SER LYS GLU PRO SER VAL LYS MET TYR          
  25 A  361  HIS LYS THR GLY SER THR SER GLY PHE GLY THR TYR VAL          
  26 A  361  VAL PHE ILE PRO LYS GLU ASN ILE GLY LEU VAL MET LEU          
  27 A  361  THR ASN LYS ARG ILE PRO ASN GLU GLU ARG ILE LYS ALA          
  28 A  361  ALA TYR VAL VAL LEU ASN ALA ILE LYS LYS                      
   1 B  361  MET ASP ASN THR PRO LYS ASP GLN GLU ILE LYS LYS LEU          
   2 B  361  VAL ASP GLN ASN PHE LYS PRO LEU LEU GLU LYS TYR ASP          
   3 B  361  VAL PRO GLY MET ALA VAL GLY VAL ILE GLN ASN ASN LYS          
   4 B  361  LYS TYR GLU MET TYR TYR GLY LEU GLN SER VAL GLN ASP          
   5 B  361  LYS LYS ALA VAL ASN SER ASN THR ILE PHE GLU LEU GLY          
   6 B  361  SER VAL SER LYS LEU PHE THR ALA THR ALA GLY GLY TYR          
   7 B  361  ALA LYS ASN LYS GLY LYS ILE SER PHE ASP ASP THR PRO          
   8 B  361  GLY LYS TYR TRP LYS GLU LEU LYS ASN THR PRO ILE ASP          
   9 B  361  GLN VAL ASN LEU LEU GLN LEU ALA THR TYR THR SER GLY          
  10 B  361  ASN LEU ALA LEU GLN PHE PRO ASP GLU VAL GLN THR ASP          
  11 B  361  GLN GLN VAL LEU THR PHE PHE LYS ASP TRP LYS PRO LYS          
  12 B  361  ASN PRO ILE GLY GLU TYR ARG GLN TYR SER ASN PRO SER          
  13 B  361  ILE GLY LEU PHE GLY LYS VAL VAL ALA LEU SER MET ASN          
  14 B  361  LYS PRO PHE ASP GLN VAL LEU GLU LYS THR ILE PHE PRO          
  15 B  361  ALA LEU GLY LEU LYS HIS SER TYR VAL ASN VAL PRO LYS          
  16 B  361  THR GLN MET GLN ASN TYR ALA PHE GLY TYR ASN GLN GLU          
  17 B  361  ASN GLN PRO ILE ARG VAL ASN PRO GLY PRO LEU ASP ALA          
  18 B  361  PRO ALA TYR GLY VAL LYS SER THR LEU PRO ASP MET LEU          
  19 B  361  SER PHE ILE HIS ALA ASN LEU ASN PRO GLN LYS TYR PRO          
  20 B  361  THR ASP ILE GLN ARG ALA ILE ASN GLU THR HIS GLN GLY          
  21 B  361  ARG TYR GLN VAL ASN THR MET TYR GLN ALA LEU GLY TRP          
  22 B  361  GLU GLU PHE SER TYR PRO ALA THR LEU GLN THR LEU LEU          
  23 B  361  ASP SER ASN SER GLU GLN ILE VAL MET LYS PRO ASN LYS          
  24 B  361  VAL THR ALA ILE SER LYS GLU PRO SER VAL LYS MET TYR          
  25 B  361  HIS LYS THR GLY SER THR SER GLY PHE GLY THR TYR VAL          
  26 B  361  VAL PHE ILE PRO LYS GLU ASN ILE GLY LEU VAL MET LEU          
  27 B  361  THR ASN LYS ARG ILE PRO ASN GLU GLU ARG ILE LYS ALA          
  28 B  361  ALA TYR VAL VAL LEU ASN ALA ILE LYS LYS                      
   1 C  361  MET ASP ASN THR PRO LYS ASP GLN GLU ILE LYS LYS LEU          
   2 C  361  VAL ASP GLN ASN PHE LYS PRO LEU LEU GLU LYS TYR ASP          
   3 C  361  VAL PRO GLY MET ALA VAL GLY VAL ILE GLN ASN ASN LYS          
   4 C  361  LYS TYR GLU MET TYR TYR GLY LEU GLN SER VAL GLN ASP          
   5 C  361  LYS LYS ALA VAL ASN SER ASN THR ILE PHE GLU LEU GLY          
   6 C  361  SER VAL SER LYS LEU PHE THR ALA THR ALA GLY GLY TYR          
   7 C  361  ALA LYS ASN LYS GLY LYS ILE SER PHE ASP ASP THR PRO          
   8 C  361  GLY LYS TYR TRP LYS GLU LEU LYS ASN THR PRO ILE ASP          
   9 C  361  GLN VAL ASN LEU LEU GLN LEU ALA THR TYR THR SER GLY          
  10 C  361  ASN LEU ALA LEU GLN PHE PRO ASP GLU VAL GLN THR ASP          
  11 C  361  GLN GLN VAL LEU THR PHE PHE LYS ASP TRP LYS PRO LYS          
  12 C  361  ASN PRO ILE GLY GLU TYR ARG GLN TYR SER ASN PRO SER          
  13 C  361  ILE GLY LEU PHE GLY LYS VAL VAL ALA LEU SER MET ASN          
  14 C  361  LYS PRO PHE ASP GLN VAL LEU GLU LYS THR ILE PHE PRO          
  15 C  361  ALA LEU GLY LEU LYS HIS SER TYR VAL ASN VAL PRO LYS          
  16 C  361  THR GLN MET GLN ASN TYR ALA PHE GLY TYR ASN GLN GLU          
  17 C  361  ASN GLN PRO ILE ARG VAL ASN PRO GLY PRO LEU ASP ALA          
  18 C  361  PRO ALA TYR GLY VAL LYS SER THR LEU PRO ASP MET LEU          
  19 C  361  SER PHE ILE HIS ALA ASN LEU ASN PRO GLN LYS TYR PRO          
  20 C  361  THR ASP ILE GLN ARG ALA ILE ASN GLU THR HIS GLN GLY          
  21 C  361  ARG TYR GLN VAL ASN THR MET TYR GLN ALA LEU GLY TRP          
  22 C  361  GLU GLU PHE SER TYR PRO ALA THR LEU GLN THR LEU LEU          
  23 C  361  ASP SER ASN SER GLU GLN ILE VAL MET LYS PRO ASN LYS          
  24 C  361  VAL THR ALA ILE SER LYS GLU PRO SER VAL LYS MET TYR          
  25 C  361  HIS LYS THR GLY SER THR SER GLY PHE GLY THR TYR VAL          
  26 C  361  VAL PHE ILE PRO LYS GLU ASN ILE GLY LEU VAL MET LEU          
  27 C  361  THR ASN LYS ARG ILE PRO ASN GLU GLU ARG ILE LYS ALA          
  28 C  361  ALA TYR VAL VAL LEU ASN ALA ILE LYS LYS                      
   1 D  361  MET ASP ASN THR PRO LYS ASP GLN GLU ILE LYS LYS LEU          
   2 D  361  VAL ASP GLN ASN PHE LYS PRO LEU LEU GLU LYS TYR ASP          
   3 D  361  VAL PRO GLY MET ALA VAL GLY VAL ILE GLN ASN ASN LYS          
   4 D  361  LYS TYR GLU MET TYR TYR GLY LEU GLN SER VAL GLN ASP          
   5 D  361  LYS LYS ALA VAL ASN SER ASN THR ILE PHE GLU LEU GLY          
   6 D  361  SER VAL SER LYS LEU PHE THR ALA THR ALA GLY GLY TYR          
   7 D  361  ALA LYS ASN LYS GLY LYS ILE SER PHE ASP ASP THR PRO          
   8 D  361  GLY LYS TYR TRP LYS GLU LEU LYS ASN THR PRO ILE ASP          
   9 D  361  GLN VAL ASN LEU LEU GLN LEU ALA THR TYR THR SER GLY          
  10 D  361  ASN LEU ALA LEU GLN PHE PRO ASP GLU VAL GLN THR ASP          
  11 D  361  GLN GLN VAL LEU THR PHE PHE LYS ASP TRP LYS PRO LYS          
  12 D  361  ASN PRO ILE GLY GLU TYR ARG GLN TYR SER ASN PRO SER          
  13 D  361  ILE GLY LEU PHE GLY LYS VAL VAL ALA LEU SER MET ASN          
  14 D  361  LYS PRO PHE ASP GLN VAL LEU GLU LYS THR ILE PHE PRO          
  15 D  361  ALA LEU GLY LEU LYS HIS SER TYR VAL ASN VAL PRO LYS          
  16 D  361  THR GLN MET GLN ASN TYR ALA PHE GLY TYR ASN GLN GLU          
  17 D  361  ASN GLN PRO ILE ARG VAL ASN PRO GLY PRO LEU ASP ALA          
  18 D  361  PRO ALA TYR GLY VAL LYS SER THR LEU PRO ASP MET LEU          
  19 D  361  SER PHE ILE HIS ALA ASN LEU ASN PRO GLN LYS TYR PRO          
  20 D  361  THR ASP ILE GLN ARG ALA ILE ASN GLU THR HIS GLN GLY          
  21 D  361  ARG TYR GLN VAL ASN THR MET TYR GLN ALA LEU GLY TRP          
  22 D  361  GLU GLU PHE SER TYR PRO ALA THR LEU GLN THR LEU LEU          
  23 D  361  ASP SER ASN SER GLU GLN ILE VAL MET LYS PRO ASN LYS          
  24 D  361  VAL THR ALA ILE SER LYS GLU PRO SER VAL LYS MET TYR          
  25 D  361  HIS LYS THR GLY SER THR SER GLY PHE GLY THR TYR VAL          
  26 D  361  VAL PHE ILE PRO LYS GLU ASN ILE GLY LEU VAL MET LEU          
  27 D  361  THR ASN LYS ARG ILE PRO ASN GLU GLU ARG ILE LYS ALA          
  28 D  361  ALA TYR VAL VAL LEU ASN ALA ILE LYS LYS                      

>  <HET>
 9TG  A 401      23                                                       
 9TG  B 401      28                                                       
 9TG  C 401      23                                                       
 9TG  D 401      23                                                       

>  <HETNAM>
     9TG 3-[(2R)-2-BORONO-2-{[(THIOPHEN-2-YL)                             
   2 9TG  ACETYL]AMINO}ETHYL]BENZOIC ACID                                 

>  <HETSYN>
     9TG BORONIC ACID TRANSITION STATE INHIBITOR EC04                     

>  <FORMUL>
   5  9TG    4(C15 H16 B N O5 S)                                          
   9  HOH   *516(H2 O)                                                    

>  <HELIX>
   1 AA1 GLU A    7  PHE A   16  1                                  10    
   2 AA2 LYS A   17  ASP A   24  1                                   8    
   3 AA3 VAL A   65  LYS A   80  1                                  16    
   4 AA4 THR A   88  TYR A   92  5                                   5    
   5 AA5 TRP A   93  LYS A   97  5                                   5    
   6 AA6 ASN A  105  THR A  111  1                                   7    
   7 AA7 THR A  127  ASP A  137  1                                  11    
   8 AA8 SER A  151  ASN A  167  1                                  17    
   9 AA9 PRO A  169  THR A  177  1                                   9    
  10 AB1 THR A  177  LEU A  182  1                                   6    
  11 AB2 PRO A  192  TYR A  199  5                                   8    
  12 AB3 LEU A  217  GLY A  223  1                                   7    
  13 AB4 THR A  227  ASN A  240  1                                  14    
  14 AB5 PRO A  241  TYR A  244  5                                   4    
  15 AB6 PRO A  245  HIS A  256  1                                  12    
  16 AB7 THR A  279  SER A  286  1                                   8    
  17 AB8 SER A  288  LYS A  294  1                                   7    
  18 AB9 PRO A  327  GLU A  329  5                                   3    
  19 AC1 PRO A  342  ILE A  357  1                                  16    
  20 AC2 PRO B    3  PHE B   16  1                                  14    
  21 AC3 PHE B   16  ASP B   24  1                                   9    
  22 AC4 VAL B   65  LYS B   80  1                                  16    
  23 AC5 THR B   88  TYR B   92  5                                   5    
  24 AC6 TRP B   93  LYS B   97  5                                   5    
  25 AC7 THR B   99  VAL B  104  5                                   6    
  26 AC8 ASN B  105  THR B  111  1                                   7    
  27 AC9 THR B  127  TRP B  138  1                                  12    
  28 AD1 SER B  151  MET B  166  1                                  16    
  29 AD2 PRO B  169  THR B  177  1                                   9    
  30 AD3 THR B  177  LEU B  182  1                                   6    
  31 AD4 PRO B  192  TYR B  199  5                                   8    
  32 AD5 LEU B  217  GLY B  223  1                                   7    
  33 AD6 THR B  227  ASN B  240  1                                  14    
  34 AD7 PRO B  241  TYR B  244  5                                   4    
  35 AD8 PRO B  245  HIS B  256  1                                  12    
  36 AD9 THR B  279  ASN B  287  1                                   9    
  37 AE1 SER B  288  LYS B  294  1                                   7    
  38 AE2 PRO B  327  GLU B  329  5                                   3    
  39 AE3 PRO B  342  ILE B  357  1                                  16    
  40 AE4 LYS C    4  PHE C   16  1                                  13    
  41 AE5 LYS C   17  ASP C   24  1                                   8    
  42 AE6 GLY C   63  VAL C   65  5                                   3    
  43 AE7 SER C   66  ASN C   79  1                                  14    
  44 AE8 THR C   88  TYR C   92  5                                   5    
  45 AE9 TRP C   93  LYS C   97  5                                   5    
  46 AF1 THR C   99  VAL C  104  5                                   6    
  47 AF2 ASN C  105  THR C  111  1                                   7    
  48 AF3 THR C  127  ASP C  137  1                                  11    
  49 AF4 SER C  151  ASN C  167  1                                  17    
  50 AF5 PRO C  169  THR C  177  1                                   9    
  51 AF6 THR C  177  GLY C  183  1                                   7    
  52 AF7 PRO C  192  TYR C  199  5                                   8    
  53 AF8 LEU C  217  GLY C  223  1                                   7    
  54 AF9 THR C  227  ASN C  240  1                                  14    
  55 AG1 PRO C  241  TYR C  244  5                                   4    
  56 AG2 PRO C  245  GLN C  257  1                                  13    
  57 AG3 THR C  279  SER C  286  1                                   8    
  58 AG4 SER C  288  MET C  293  1                                   6    
  59 AG5 PRO C  342  ILE C  357  1                                  16    
  60 AG6 LYS D    4  PHE D   16  1                                  13    
  61 AG7 PRO D   18  ASP D   24  1                                   7    
  62 AG8 GLY D   63  VAL D   65  5                                   3    
  63 AG9 SER D   66  LYS D   80  1                                  15    
  64 AH1 THR D   88  TYR D   92  5                                   5    
  65 AH2 TRP D   93  LYS D   97  5                                   5    
  66 AH3 THR D   99  VAL D  104  5                                   6    
  67 AH4 ASN D  105  THR D  111  1                                   7    
  68 AH5 THR D  127  TRP D  138  1                                  12    
  69 AH6 SER D  151  MET D  166  1                                  16    
  70 AH7 PRO D  169  THR D  177  1                                   9    
  71 AH8 THR D  177  GLY D  183  1                                   7    
  72 AH9 PRO D  192  TYR D  199  5                                   8    
  73 AI1 LEU D  217  GLY D  223  1                                   7    
  74 AI2 THR D  227  ASN D  240  1                                  14    
  75 AI3 PRO D  241  TYR D  244  5                                   4    
  76 AI4 PRO D  245  THR D  255  1                                  11    
  77 AI5 THR D  279  SER D  286  1                                   8    
  78 AI6 SER D  288  LYS D  294  1                                   7    
  79 AI7 PRO D  342  ALA D  356  1                                  15    

>  <SHEET>
   1 AA1 9 LYS A  52  ALA A  53  0                                        
   2 AA1 9 LYS A  37  SER A  47 -1  N  GLN A  46   O  LYS A  52           
   3 AA1 9 GLY A  27  GLN A  34 -1  N  VAL A  32   O  TYR A  39           
   4 AA1 9 ILE A 331  THR A 337 -1  O  VAL A 334   N  GLY A  31           
   5 AA1 9 GLY A 320  ILE A 326 -1  N  GLY A 320   O  THR A 337           
   6 AA1 9 LYS A 308  SER A 315 -1  N  GLY A 314   O  THR A 321           
   7 AA1 9 GLU A 272  SER A 275 -1  N  PHE A 274   O  MET A 309           
   8 AA1 9 MET A 265  GLN A 267 -1  N  TYR A 266   O  GLU A 273           
   9 AA1 9 TYR A 260  VAL A 262 -1  N  TYR A 260   O  GLN A 267           
   1 AA2 2 PHE A  60  GLU A  61  0                                        
   2 AA2 2 LYS A 225  SER A 226 -1  O  SER A 226   N  PHE A  60           
   1 AA3 2 TYR A 147  ARG A 148  0                                        
   2 AA3 2 ASN A 296  LYS A 297 -1  O  ASN A 296   N  ARG A 148           
   1 AA4 2 GLY A 202  TYR A 203  0                                        
   2 AA4 2 PRO A 209  ILE A 210 -1  O  ILE A 210   N  GLY A 202           
   1 AA5 9 LYS B  52  ALA B  53  0                                        
   2 AA5 9 LYS B  37  SER B  47 -1  N  GLN B  46   O  LYS B  52           
   3 AA5 9 GLY B  27  GLN B  34 -1  N  VAL B  32   O  TYR B  39           
   4 AA5 9 ILE B 331  THR B 337 -1  O  LEU B 336   N  ALA B  29           
   5 AA5 9 PHE B 319  ILE B 326 -1  N  GLY B 320   O  THR B 337           
   6 AA5 9 LYS B 308  THR B 316 -1  N  GLY B 314   O  THR B 321           
   7 AA5 9 GLU B 272  SER B 275 -1  N  PHE B 274   O  MET B 309           
   8 AA5 9 MET B 265  GLN B 267 -1  N  TYR B 266   O  GLU B 273           
   9 AA5 9 TYR B 260  VAL B 262 -1  N  VAL B 262   O  MET B 265           
   1 AA6 2 PHE B  60  GLU B  61  0                                        
   2 AA6 2 LYS B 225  SER B 226 -1  O  SER B 226   N  PHE B  60           
   1 AA7 2 TYR B 147  ARG B 148  0                                        
   2 AA7 2 ASN B 296  LYS B 297 -1  O  ASN B 296   N  ARG B 148           
   1 AA8 2 GLY B 202  TYR B 203  0                                        
   2 AA8 2 PRO B 209  ILE B 210 -1  O  ILE B 210   N  GLY B 202           
   1 AA9 9 LYS C  52  ALA C  53  0                                        
   2 AA9 9 LYS C  37  SER C  47 -1  N  SER C  47   O  LYS C  52           
   3 AA9 9 GLY C  27  GLN C  34 -1  N  MET C  28   O  TYR C  43           
   4 AA9 9 ILE C 331  THR C 337 -1  O  VAL C 334   N  GLY C  31           
   5 AA9 9 GLY C 320  ILE C 326 -1  N  GLY C 320   O  THR C 337           
   6 AA9 9 LYS C 308  SER C 315 -1  N  GLY C 314   O  THR C 321           
   7 AA9 9 GLU C 272  SER C 275 -1  N  PHE C 274   O  MET C 309           
   8 AA9 9 MET C 265  GLN C 267 -1  N  TYR C 266   O  GLU C 273           
   9 AA9 9 GLN C 261  VAL C 262 -1  N  VAL C 262   O  MET C 265           
   1 AB1 2 PHE C  60  GLU C  61  0                                        
   2 AB1 2 LYS C 225  SER C 226 -1  O  SER C 226   N  PHE C  60           
   1 AB2 2 TYR C 147  ARG C 148  0                                        
   2 AB2 2 ASN C 296  LYS C 297 -1  O  ASN C 296   N  ARG C 148           
   1 AB3 2 GLY C 202  TYR C 203  0                                        
   2 AB3 2 PRO C 209  ILE C 210 -1  O  ILE C 210   N  GLY C 202           
   1 AB4 9 LYS D  52  ALA D  53  0                                        
   2 AB4 9 LYS D  37  SER D  47 -1  N  GLN D  46   O  LYS D  52           
   3 AB4 9 GLY D  27  GLN D  34 -1  N  VAL D  30   O  MET D  41           
   4 AB4 9 ILE D 331  THR D 337 -1  O  LEU D 336   N  ALA D  29           
   5 AB4 9 PHE D 319  ILE D 326 -1  N  GLY D 320   O  THR D 337           
   6 AB4 9 LYS D 308  THR D 316 -1  N  TYR D 310   O  PHE D 325           
   7 AB4 9 GLU D 272  SER D 275 -1  N  PHE D 274   O  MET D 309           
   8 AB4 9 MET D 265  GLN D 267 -1  N  TYR D 266   O  GLU D 273           
   9 AB4 9 GLN D 261  VAL D 262 -1  N  VAL D 262   O  MET D 265           
   1 AB5 2 PHE D  60  GLU D  61  0                                        
   2 AB5 2 LYS D 225  SER D 226 -1  O  SER D 226   N  PHE D  60           
   1 AB6 2 TYR D 147  ARG D 148  0                                        
   2 AB6 2 ASN D 296  LYS D 297 -1  O  ASN D 296   N  ARG D 148           
   1 AB7 2 GLY D 202  TYR D 203  0                                        
   2 AB7 2 PRO D 209  ILE D 210 -1  O  ILE D 210   N  GLY D 202           

>  <LINK>
       OG  SER A  64                 B13 9TG A 401     1555   1555  1.46  
       OG  SER B  64                 B13 9TG B 401     1555   1555  1.49  
       OG  SER C  64                 B13 9TG C 401     1555   1555  1.45  
       OG  SER D  64                 B13 9TG D 401     1555   1555  1.48  

>  <CISPEP>
   1 TYR A  276    PRO A  277          0         1.80                     
   2 TYR B  276    PRO B  277          0         2.20                     
   3 TYR C  276    PRO C  277          0         3.72                     
   4 TYR D  276    PRO D  277          0         3.66                     

>  <SITE>
   1 AC1 11 SER A  64  GLN A 120  TYR A 150  ASN A 152                    
   2 AC1 11 TYR A 222  GLY A 314  SER A 315  THR A 316                    
   3 AC1 11 ARG A 340  ASN A 343  HOH A 503                               
   1 AC2 16 LEU B  62  GLY B  63  VAL B  65  SER B  66                    
   2 AC2 16 LYS B  67  GLN B 120  TYR B 150  ASN B 152                    
   3 AC2 16 THR B 313  GLY B 314  SER B 315  THR B 316                    
   4 AC2 16 ASN B 343  HOH B 506  HOH B 511  HOH B 716                    
   1 AC3 13 LEU C  62  GLY C  63  VAL C  65  SER C  66                    
   2 AC3 13 LYS C  67  GLN C 120  TYR C 150  ASN C 152                    
   3 AC3 13 GLY C 314  SER C 315  THR C 316  ARG C 340                    
   4 AC3 13 ASN C 343                                                     
   1 AC4 17 LEU D  62  GLY D  63  VAL D  65  SER D  66                    
   2 AC4 17 LYS D  67  GLN D 120  TYR D 150  ASN D 152                    
   3 AC4 17 LYS D 312  THR D 313  GLY D 314  SER D 315                    
   4 AC4 17 THR D 316  SER D 317  ARG D 340  ASN D 343                    
   5 AC4 17 HOH D 555                                                     

>  <ORIGX1>
      1.000000  0.000000  0.000000        0.00000                         

>  <ORIGX2>
      0.000000  1.000000  0.000000        0.00000                         

>  <ORIGX3>
      0.000000  0.000000  1.000000        0.00000                         

>  <SCALE1>
      0.011170  0.000000  0.004717        0.00000                         

>  <SCALE2>
      0.000000  0.012300  0.000000        0.00000                         

>  <SCALE3>
      0.000000  0.000000  0.010175        0.00000                         

>  <MASTER>
      453    0    4   79   60    0   16    611759    4  101  112          

$$$$
