start_structures/Ligand_Substrate/Ligand_Complex_Stripped/A0Y_5WAF.pdb
 OpenBabel08222315203D

 33 34  0  0  1  0  0  0  0  0999 V2000
  -15.0800   -6.8710  -38.0670 N   0  0  0  0  0  0  0  0  0  0  0  0
  -14.6760   -8.2560  -37.9530 C   0  0  2  0  0  0  0  0  0  0  0  0
  -13.1640   -8.4870  -38.1200 C   0  0  0  0  0  0  0  0  0  0  0  0
  -12.7130   -9.5570  -37.8220 O   0  0  0  0  0  0  0  0  0  0  0  0
  -15.4330   -9.1150  -38.9500 C   0  0  0  0  0  0  0  0  0  0  0  0
  -16.8460   -9.0330  -38.6830 O   0  0  0  0  0  0  0  0  0  0  0  0
  -19.1260   -8.6630  -39.0210 C   0  0  0  0  0  0  0  0  0  0  0  0
  -21.6800   -7.8380  -39.3820 S   0  0  0  0  0  0  0  0  0  0  0  0
  -17.7100   -8.4530  -39.7240 B   0  0  1  0  0  0  0  0  0  0  0  0
  -17.3220   -6.9950  -39.6700 O   0  0  0  0  0  0  0  0  0  0  0  0
  -17.3590   -9.1790  -40.9420 O   0  0  0  0  0  0  0  0  0  0  0  0
  -20.1370   -7.9910  -39.8310 N   0  0  0  0  0  0  0  0  0  0  0  0
  -22.0530   -8.8930  -38.4670 O   0  0  0  0  0  0  0  0  0  0  0  0
  -22.2860   -7.9900  -40.6710 O   0  0  0  0  0  0  0  0  0  0  0  0
  -21.9180   -6.4460  -38.5170 C   0  0  0  0  0  0  0  0  0  0  0  0
  -22.1390   -5.0680  -39.0700 C   0  0  0  0  0  0  0  0  0  0  0  0
  -22.3390   -3.9850  -38.2080 C   0  0  0  0  0  0  0  0  0  0  0  0
  -22.3590   -4.1100  -36.8380 C   0  0  0  0  0  0  0  0  0  0  0  0
  -22.1210   -5.3510  -36.2740 C   0  0  0  0  0  0  0  0  0  0  0  0
  -21.9100   -6.4680  -37.1110 C   0  0  0  0  0  0  0  0  0  0  0  0
  -22.5900   -2.8610  -36.0620 C   0  0  0  0  0  0  0  0  0  0  0  0
  -22.5690   -1.5530  -36.3940 N   0  0  0  0  0  0  0  0  0  0  0  0
  -22.8390   -0.8280  -35.2170 N   0  0  0  0  0  0  0  0  0  0  0  0
  -23.0560   -1.7230  -34.1660 N   0  0  0  0  0  0  0  0  0  0  0  0
  -22.8710   -2.9750  -34.7820 N   0  0  0  0  0  0  0  0  0  0  0  0
  -22.1490   -4.7970  -40.5090 C   0  0  0  0  0  0  0  0  0  0  0  0
  -21.2830   -5.5640  -41.1400 F   0  0  0  0  0  0  0  0  0  0  0  0
  -21.7590   -3.5540  -40.6910 F   0  0  0  0  0  0  0  0  0  0  0  0
  -23.3530   -4.9930  -40.9820 F   0  0  0  0  0  0  0  0  0  0  0  0
  -17.7040   -8.8470  -42.4730 P   0  0  0  0  0  0  0  0  0  0  0  0
  -16.5860   -8.0210  -43.0570 O   0  0  0  0  0  0  0  0  0  0  0  0
  -17.8160  -10.0420  -43.3850 O   0  0  0  0  0  0  0  0  0  0  0  0
  -19.0350   -8.0760  -42.3050 O   0  0  0  0  0  0  0  0  0  0  0  0
  2  1  1  6  0  0  0
  3  2  1  0  0  0  0
  3  4  2  0  0  0  0
  5  6  1  0  0  0  0
  5  2  1  0  0  0  0
  8 15  1  0  0  0  0
  8 13  2  0  0  0  0
  9 10  1  6  0  0  0
  9  7  1  0  0  0  0
  9  6  1  0  0  0  0
 11  9  1  0  0  0  0
 12  8  1  0  0  0  0
 12  7  1  0  0  0  0
 14  8  2  0  0  0  0
 15 20  1  0  0  0  0
 16 15  2  0  0  0  0
 16 17  1  0  0  0  0
 17 18  2  0  0  0  0
 18 19  1  0  0  0  0
 18 21  1  0  0  0  0
 20 19  2  0  0  0  0
 21 25  1  0  0  0  0
 22 21  2  0  0  0  0
 22 23  1  0  0  0  0
 23 24  1  0  0  0  0
 25 24  2  0  0  0  0
 26 16  1  0  0  0  0
 27 26  1  0  0  0  0
 28 26  1  0  0  0  0
 29 26  1  0  0  0  0
 30 33  1  0  0  0  0
 30 11  1  0  0  0  0
 31 30  1  0  0  0  0
 32 30  2  0  0  0  0
M  END
>  <HEADER>
    HYDROLASE/HYDROLASE INHIBITOR           26-JUN-17   5WAF              

>  <TITLE>
    ADC-7 IN COMPLEX WITH BORONIC ACID TRANSITION STATE INHIBITOR CR192   

>  <COMPND>
    MOL_ID: 1;                                                            
   2 MOLECULE: BETA-LACTAMASE;                                            
   3 CHAIN: A, B, C, D;                                                   
   4 EC: 3.5.2.6;                                                         
   5 ENGINEERED: YES                                                      

>  <SOURCE>
    MOL_ID: 1;                                                            
   2 ORGANISM_SCIENTIFIC: ACINETOBACTER BAUMANNII;                        
   3 ORGANISM_TAXID: 470;                                                 
   4 EXPRESSION_SYSTEM: ESCHERICHIA COLI;                                 
   5 EXPRESSION_SYSTEM_TAXID: 562;                                        
   6 EXPRESSION_SYSTEM_STRAIN: BL21(DE3)                                  

>  <KEYWDS>
    INHIBITOR, BETA-LACTAMASE, BATSI, ADC-7, ANTIMICROBIAL PROTEIN,       
   2 HYDROLASE-HYDROLASE INHIBITOR COMPLEX                                

>  <EXPDTA>
    X-RAY DIFFRACTION                                                     

>  <AUTHOR>
    R.A.POWERS,B.J.WALLAR                                                 

>  <REVDAT>
   4   11-DEC-19 5WAF    1       REMARK                                   
   3   21-MAR-18 5WAF    1       JRNL                                     
   2   20-DEC-17 5WAF    1       JRNL                                     
   1   06-DEC-17 5WAF    0                                                

>  <JRNL>
      AUTH   A.A.BOUZA,H.C.SWANSON,K.A.SMOLEN,A.L.VANDINE,M.A.TARACILA,   
      AUTH 2 C.ROMAGNOLI,E.CASELLI,F.PRATI,R.A.BONOMO,R.A.POWERS,         
      AUTH 3 B.J.WALLAR                                                   
      TITL   STRUCTURE-BASED ANALYSIS OF BORONIC ACIDS AS INHIBITORS OF   
      TITL 2 ACINETOBACTER-DERIVED CEPHALOSPORINASE-7, A UNIQUE CLASS C   
      TITL 3 BETA-LACTAMASE.                                              
      REF    ACS INFECT DIS                V.   4   325 2018              
      REFN                   ESSN 2373-8227                               
      PMID   29144724                                                     
      DOI    10.1021/ACSINFECDIS.7B00152                                  

>  <REMARK>
   2                                                                      
   2 RESOLUTION.    2.03 ANGSTROMS.                                       
   3                                                                      
   3 REFINEMENT.                                                          
   3   PROGRAM     : REFMAC 5.8.0103                                      
   3   AUTHORS     : MURSHUDOV,SKUBAK,LEBEDEV,PANNU,STEINER,              
   3               : NICHOLLS,WINN,LONG,VAGIN                             
   3                                                                      
   3    REFINEMENT TARGET : NULL                                          
   3                                                                      
   3  DATA USED IN REFINEMENT.                                            
   3   RESOLUTION RANGE HIGH (ANGSTROMS) : 2.03                           
   3   RESOLUTION RANGE LOW  (ANGSTROMS) : 49.09                          
   3   DATA CUTOFF            (SIGMA(F)) : NULL                           
   3   COMPLETENESS FOR RANGE        (%) : 99.5                           
   3   NUMBER OF REFLECTIONS             : 85635                          
   3                                                                      
   3  FIT TO DATA USED IN REFINEMENT.                                     
   3   CROSS-VALIDATION METHOD          : THROUGHOUT                      
   3   FREE R VALUE TEST SET SELECTION  : RANDOM                          
   3   R VALUE     (WORKING + TEST SET) : 0.218                           
   3   R VALUE            (WORKING SET) : 0.215                           
   3   FREE R VALUE                     : 0.277                           
   3   FREE R VALUE TEST SET SIZE   (%) : 4.800                           
   3   FREE R VALUE TEST SET COUNT      : 4331                            
   3                                                                      
   3  FIT IN THE HIGHEST RESOLUTION BIN.                                  
   3   TOTAL NUMBER OF BINS USED           : 20                           
   3   BIN RESOLUTION RANGE HIGH       (A) : 2.03                         
   3   BIN RESOLUTION RANGE LOW        (A) : 2.08                         
   3   REFLECTION IN BIN     (WORKING SET) : 6318                         
   3   BIN COMPLETENESS (WORKING+TEST) (%) : 99.79                        
   3   BIN R VALUE           (WORKING SET) : 0.3230                       
   3   BIN FREE R VALUE SET COUNT          : 304                          
   3   BIN FREE R VALUE                    : 0.3550                       
   3                                                                      
   3  NUMBER OF NON-HYDROGEN ATOMS USED IN REFINEMENT.                    
   3   PROTEIN ATOMS            : 11013                                   
   3   NUCLEIC ACID ATOMS       : 0                                       
   3   HETEROGEN ATOMS          : 108                                     
   3   SOLVENT ATOMS            : 349                                     
   3                                                                      
   3  B VALUES.                                                           
   3   FROM WILSON PLOT           (A**2) : NULL                           
   3   MEAN B VALUE      (OVERALL, A**2) : 40.14                          
   3   OVERALL ANISOTROPIC B VALUE.                                       
   3    B11 (A**2) : 0.00000                                              
   3    B22 (A**2) : -0.01000                                             
   3    B33 (A**2) : 0.00000                                              
   3    B12 (A**2) : 0.00000                                              
   3    B13 (A**2) : 0.01000                                              
   3    B23 (A**2) : 0.00000                                              
   3                                                                      
   3  ESTIMATED OVERALL COORDINATE ERROR.                                 
   3   ESU BASED ON R VALUE                            (A): 0.240         
   3   ESU BASED ON FREE R VALUE                       (A): 0.210         
   3   ESU BASED ON MAXIMUM LIKELIHOOD                 (A): 0.191         
   3   ESU FOR B VALUES BASED ON MAXIMUM LIKELIHOOD (A**2): 7.245         
   3                                                                      
   3 CORRELATION COEFFICIENTS.                                            
   3   CORRELATION COEFFICIENT FO-FC      : 0.948                         
   3   CORRELATION COEFFICIENT FO-FC FREE : 0.913                         
   3                                                                      
   3  RMS DEVIATIONS FROM IDEAL VALUES        COUNT    RMS    WEIGHT      
   3   BOND LENGTHS REFINED ATOMS        (A): 11427 ; 0.016 ; 0.020       
   3   BOND LENGTHS OTHERS               (A): 10628 ; 0.002 ; 0.020       
   3   BOND ANGLES REFINED ATOMS   (DEGREES): 15592 ; 1.832 ; 1.973       
   3   BOND ANGLES OTHERS          (DEGREES): 24450 ; 1.056 ; 3.000       
   3   TORSION ANGLES, PERIOD 1    (DEGREES):  1424 ; 7.272 ; 5.000       
   3   TORSION ANGLES, PERIOD 2    (DEGREES):   490 ;41.721 ;25.633       
   3   TORSION ANGLES, PERIOD 3    (DEGREES):  1828 ;15.763 ;15.000       
   3   TORSION ANGLES, PERIOD 4    (DEGREES):    23 ;17.149 ;15.000       
   3   CHIRAL-CENTER RESTRAINTS       (A**3):  1723 ; 0.132 ; 0.200       
   3   GENERAL PLANES REFINED ATOMS      (A): 13084 ; 0.009 ; 0.021       
   3   GENERAL PLANES OTHERS             (A):  2575 ; 0.002 ; 0.020       
   3   NON-BONDED CONTACTS REFINED ATOMS (A):  NULL ;  NULL ;  NULL       
   3   NON-BONDED CONTACTS OTHERS        (A):  NULL ;  NULL ;  NULL       
   3   NON-BONDED TORSION REFINED ATOMS  (A):  NULL ;  NULL ;  NULL       
   3   NON-BONDED TORSION OTHERS         (A):  NULL ;  NULL ;  NULL       
   3   H-BOND (X...Y) REFINED ATOMS      (A):  NULL ;  NULL ;  NULL       
   3   H-BOND (X...Y) OTHERS             (A):  NULL ;  NULL ;  NULL       
   3   POTENTIAL METAL-ION REFINED ATOMS (A):  NULL ;  NULL ;  NULL       
   3   POTENTIAL METAL-ION OTHERS        (A):  NULL ;  NULL ;  NULL       
   3   SYMMETRY VDW REFINED ATOMS        (A):  NULL ;  NULL ;  NULL       
   3   SYMMETRY VDW OTHERS               (A):  NULL ;  NULL ;  NULL       
   3   SYMMETRY H-BOND REFINED ATOMS     (A):  NULL ;  NULL ;  NULL       
   3   SYMMETRY H-BOND OTHERS            (A):  NULL ;  NULL ;  NULL       
   3   SYMMETRY METAL-ION REFINED ATOMS  (A):  NULL ;  NULL ;  NULL       
   3   SYMMETRY METAL-ION OTHERS         (A):  NULL ;  NULL ;  NULL       
   3                                                                      
   3  ISOTROPIC THERMAL FACTOR RESTRAINTS.     COUNT   RMS    WEIGHT      
   3   MAIN-CHAIN BOND REFINED ATOMS  (A**2):  5699 ; 3.146 ; 3.960       
   3   MAIN-CHAIN BOND OTHER ATOMS    (A**2):  5698 ; 3.146 ; 3.960       
   3   MAIN-CHAIN ANGLE REFINED ATOMS (A**2):  7122 ; 4.410 ; 5.925       
   3   MAIN-CHAIN ANGLE OTHER ATOMS   (A**2):  7123 ; 4.410 ; 5.926       
   3   SIDE-CHAIN BOND REFINED ATOMS  (A**2):  5728 ; 3.178 ; 4.223       
   3   SIDE-CHAIN BOND OTHER ATOMS    (A**2):  5723 ; 3.178 ; 4.224       
   3   SIDE-CHAIN ANGLE REFINED ATOMS (A**2):  NULL ;  NULL ;  NULL       
   3   SIDE-CHAIN ANGLE OTHER ATOMS   (A**2):  8468 ; 4.718 ; 6.230       
   3   LONG RANGE B REFINED ATOMS     (A**2): 12607 ; 6.365 ;31.899       
   3   LONG RANGE B OTHER ATOMS       (A**2): 12577 ; 6.365 ;31.897       
   3                                                                      
   3 ANISOTROPIC THERMAL FACTOR RESTRAINTS.    COUNT   RMS   WEIGHT       
   3   RIGID-BOND RESTRAINTS          (A**2):  NULL ;  NULL ;  NULL       
   3   SPHERICITY; FREE ATOMS         (A**2):  NULL ;  NULL ;  NULL       
   3   SPHERICITY; BONDED ATOMS       (A**2):  NULL ;  NULL ;  NULL       
   3                                                                      
   3  NCS RESTRAINTS STATISTICS                                           
   3   NUMBER OF DIFFERENT NCS GROUPS : NULL                              
   3                                                                      
   3  TLS DETAILS                                                         
   3   NUMBER OF TLS GROUPS  : NULL                                       
   3                                                                      
   3  BULK SOLVENT MODELLING.                                             
   3   METHOD USED : NULL                                                 
   3   PARAMETERS FOR MASK CALCULATION                                    
   3   VDW PROBE RADIUS   : 1.20                                          
   3   ION PROBE RADIUS   : 0.80                                          
   3   SHRINKAGE RADIUS   : 0.80                                          
   3                                                                      
   3  OTHER REFINEMENT REMARKS: HYDROGENS HAVE BEEN ADDED IN THE RIDING   
   3  POSITIONS                                                           
   4                                                                      
   4 5WAF COMPLIES WITH FORMAT V. 3.30, 13-JUL-11                         
 100                                                                      
 100 THIS ENTRY HAS BEEN PROCESSED BY RCSB ON 05-JUL-17.                  
 100 THE DEPOSITION ID IS D_1000228585.                                   
 200                                                                      
 200 EXPERIMENTAL DETAILS                                                 
 200  EXPERIMENT TYPE                : X-RAY DIFFRACTION                  
 200  DATE OF DATA COLLECTION        : 08-AUG-14                          
 200  TEMPERATURE           (KELVIN) : 100                                
 200  PH                             : 5.0                                
 200  NUMBER OF CRYSTALS USED        : 1                                  
 200                                                                      
 200  SYNCHROTRON              (Y/N) : Y                                  
 200  RADIATION SOURCE               : APS                                
 200  BEAMLINE                       : 21-ID-G                            
 200  X-RAY GENERATOR MODEL          : NULL                               
 200  MONOCHROMATIC OR LAUE    (M/L) : M                                  
 200  WAVELENGTH OR RANGE        (A) : 0.97856                            
 200  MONOCHROMATOR                  : NULL                               
 200  OPTICS                         : NULL                               
 200                                                                      
 200  DETECTOR TYPE                  : CCD                                
 200  DETECTOR MANUFACTURER          : RAYONIX MX-300                     
 200  INTENSITY-INTEGRATION SOFTWARE : XDS                                
 200  DATA SCALING SOFTWARE          : XSCALE                             
 200                                                                      
 200  NUMBER OF UNIQUE REFLECTIONS   : 90022                              
 200  RESOLUTION RANGE HIGH      (A) : 2.030                              
 200  RESOLUTION RANGE LOW       (A) : 98.180                             
 200  REJECTION CRITERIA  (SIGMA(I)) : NULL                               
 200                                                                      
 200 OVERALL.                                                             
 200  COMPLETENESS FOR RANGE     (%) : 99.5                               
 200  DATA REDUNDANCY                : 4.200                              
 200  R MERGE                    (I) : 0.10400                            
 200  R SYM                      (I) : NULL                               
 200  <I/SIGMA(I)> FOR THE DATA SET  : 8.8000                             
 200                                                                      
 200 IN THE HIGHEST RESOLUTION SHELL.                                     
 200  HIGHEST RESOLUTION SHELL, RANGE HIGH (A) : 2.03                     
 200  HIGHEST RESOLUTION SHELL, RANGE LOW  (A) : 2.04                     
 200  COMPLETENESS FOR SHELL     (%) : 99.5                               
 200  DATA REDUNDANCY IN SHELL       : 4.20                               
 200  R MERGE FOR SHELL          (I) : 0.65200                            
 200  R SYM FOR SHELL            (I) : NULL                               
 200  <I/SIGMA(I)> FOR SHELL         : 2.200                              
 200                                                                      
 200 DIFFRACTION PROTOCOL: SINGLE WAVELENGTH                              
 200 METHOD USED TO DETERMINE THE STRUCTURE: MOLECULAR REPLACEMENT        
 200 SOFTWARE USED: PHASER                                                
 200 STARTING MODEL: 4U0T                                                 
 200                                                                      
 200 REMARK: NULL                                                         
 280                                                                      
 280 CRYSTAL                                                              
 280 SOLVENT CONTENT, VS   (%): 43.48                                     
 280 MATTHEWS COEFFICIENT, VM (ANGSTROMS**3/DA): 2.18                     
 280                                                                      
 280 CRYSTALLIZATION CONDITIONS: ADC-7 (3MG/ML) IN 25% W/V POLYETHYLENE   
 280  GLYCOL (PEG) 1500, 0.1 M SUCCINATE/ PHOSPHATE/ GLYCINE, PH 5.0,     
 280  VAPOR DIFFUSION, HANGING DROP, TEMPERATURE 298K                     
 290                                                                      
 290 CRYSTALLOGRAPHIC SYMMETRY                                            
 290 SYMMETRY OPERATORS FOR SPACE GROUP: P 1 21 1                         
 290                                                                      
 290      SYMOP   SYMMETRY                                                
 290     NNNMMM   OPERATOR                                                
 290       1555   X,Y,Z                                                   
 290       2555   -X,Y+1/2,-Z                                             
 290                                                                      
 290     WHERE NNN -> OPERATOR NUMBER                                     
 290           MMM -> TRANSLATION VECTOR                                  
 290                                                                      
 290 CRYSTALLOGRAPHIC SYMMETRY TRANSFORMATIONS                            
 290 THE FOLLOWING TRANSFORMATIONS OPERATE ON THE ATOM/HETATM             
 290 RECORDS IN THIS ENTRY TO PRODUCE CRYSTALLOGRAPHICALLY                
 290 RELATED MOLECULES.                                                   
 290   SMTRY1   1  1.000000  0.000000  0.000000        0.00000            
 290   SMTRY2   1  0.000000  1.000000  0.000000        0.00000            
 290   SMTRY3   1  0.000000  0.000000  1.000000        0.00000            
 290   SMTRY1   2 -1.000000  0.000000  0.000000        0.00000            
 290   SMTRY2   2  0.000000  1.000000  0.000000       40.64050            
 290   SMTRY3   2  0.000000  0.000000 -1.000000        0.00000            
 290                                                                      
 290 REMARK: NULL                                                         
 300                                                                      
 300 BIOMOLECULE: 1, 2, 3, 4                                              
 300 SEE REMARK 350 FOR THE AUTHOR PROVIDED AND/OR PROGRAM                
 300 GENERATED ASSEMBLY INFORMATION FOR THE STRUCTURE IN                  
 300 THIS ENTRY. THE REMARK MAY ALSO PROVIDE INFORMATION ON               
 300 BURIED SURFACE AREA.                                                 
 350                                                                      
 350 COORDINATES FOR A COMPLETE MULTIMER REPRESENTING THE KNOWN           
 350 BIOLOGICALLY SIGNIFICANT OLIGOMERIZATION STATE OF THE                
 350 MOLECULE CAN BE GENERATED BY APPLYING BIOMT TRANSFORMATIONS          
 350 GIVEN BELOW.  BOTH NON-CRYSTALLOGRAPHIC AND                          
 350 CRYSTALLOGRAPHIC OPERATIONS ARE GIVEN.                               
 350                                                                      
 350 BIOMOLECULE: 1                                                       
 350 AUTHOR DETERMINED BIOLOGICAL UNIT: MONOMERIC                         
 350 SOFTWARE DETERMINED QUATERNARY STRUCTURE: MONOMERIC                  
 350 SOFTWARE USED: PISA                                                  
 350 APPLY THE FOLLOWING TO CHAINS: A                                     
 350   BIOMT1   1  1.000000  0.000000  0.000000        0.00000            
 350   BIOMT2   1  0.000000  1.000000  0.000000        0.00000            
 350   BIOMT3   1  0.000000  0.000000  1.000000        0.00000            
 350                                                                      
 350 BIOMOLECULE: 2                                                       
 350 AUTHOR DETERMINED BIOLOGICAL UNIT: MONOMERIC                         
 350 SOFTWARE DETERMINED QUATERNARY STRUCTURE: MONOMERIC                  
 350 SOFTWARE USED: PISA                                                  
 350 APPLY THE FOLLOWING TO CHAINS: B                                     
 350   BIOMT1   1  1.000000  0.000000  0.000000        0.00000            
 350   BIOMT2   1  0.000000  1.000000  0.000000        0.00000            
 350   BIOMT3   1  0.000000  0.000000  1.000000        0.00000            
 350                                                                      
 350 BIOMOLECULE: 3                                                       
 350 AUTHOR DETERMINED BIOLOGICAL UNIT: MONOMERIC                         
 350 SOFTWARE DETERMINED QUATERNARY STRUCTURE: MONOMERIC                  
 350 SOFTWARE USED: PISA                                                  
 350 APPLY THE FOLLOWING TO CHAINS: C                                     
 350   BIOMT1   1  1.000000  0.000000  0.000000        0.00000            
 350   BIOMT2   1  0.000000  1.000000  0.000000        0.00000            
 350   BIOMT3   1  0.000000  0.000000  1.000000        0.00000            
 350                                                                      
 350 BIOMOLECULE: 4                                                       
 350 AUTHOR DETERMINED BIOLOGICAL UNIT: MONOMERIC                         
 350 SOFTWARE DETERMINED QUATERNARY STRUCTURE: MONOMERIC                  
 350 SOFTWARE USED: PISA                                                  
 350 APPLY THE FOLLOWING TO CHAINS: D                                     
 350   BIOMT1   1  1.000000  0.000000  0.000000        0.00000            
 350   BIOMT2   1  0.000000  1.000000  0.000000        0.00000            
 350   BIOMT3   1  0.000000  0.000000  1.000000        0.00000            
 465                                                                      
 465 MISSING RESIDUES                                                     
 465 THE FOLLOWING RESIDUES WERE NOT LOCATED IN THE                       
 465 EXPERIMENT. (M=MODEL NUMBER; RES=RESIDUE NAME; C=CHAIN               
 465 IDENTIFIER; SSSEQ=SEQUENCE NUMBER; I=INSERTION CODE.)                
 465                                                                      
 465   M RES C SSSEQI                                                     
 465     MET A    -1                                                      
 465     ASP A     0                                                      
 465     ASN A     1                                                      
 465     THR A     2                                                      
 465     PRO A     3                                                      
 465     LYS A     4                                                      
 465     ASP A     5                                                      
 465     LYS A   359                                                      
 465     MET B    -1                                                      
 465     ASP B     0                                                      
 465     ASN B     1                                                      
 465     MET C    -1                                                      
 465     ASP C     0                                                      
 465     ASN C     1                                                      
 465     THR C     2                                                      
 465     LYS C   359                                                      
 465     MET D    -1                                                      
 465     ASP D     0                                                      
 465     ASN D     1                                                      
 465     THR D     2                                                      
 465     LYS D   358                                                      
 465     LYS D   359                                                      
 470                                                                      
 470 MISSING ATOM                                                         
 470 THE FOLLOWING RESIDUES HAVE MISSING ATOMS (M=MODEL NUMBER;           
 470 RES=RESIDUE NAME; C=CHAIN IDENTIFIER; SSEQ=SEQUENCE NUMBER;          
 470 I=INSERTION CODE):                                                   
 470   M RES CSSEQI  ATOMS                                                
 470     GLN A   6    CG   CD   OE1  NE2                                  
 470     GLU A   7    CG   CD   OE1  OE2                                  
 470     LYS A  10    CG   CD   CE   NZ                                   
 470     GLU A  21    CG   CD   OE1  OE2                                  
 470     LYS A  37    CG   CD   CE   NZ                                   
 470     LYS A  51    CG   CD   CE   NZ                                   
 470     LYS A  52    CG   CD   CE   NZ                                   
 470     LYS A  80    CG   CD   CE   NZ                                   
 470     LEU A  96    CG   CD1  CD2                                       
 470     THR A  99    OG1  CG2                                            
 470     ASP A 102    CG   OD1  OD2                                       
 470     GLN A 129    CG   CD   OE1  NE2                                  
 470     LYS A 139    CG   CD   CE   NZ                                   
 470     LYS A 141    CG   CD   CE   NZ                                   
 470     GLU A 146    CG   CD   OE1  OE2                                  
 470     GLN A 149    CG   CD   OE1  NE2                                  
 470     ASN A 167    CG   OD1  ND2                                       
 470     LYS A 185    CG   CD   CE   NZ                                   
 470     LYS A 193    CG   CD   CE   NZ                                   
 470     LYS A 294    CG   CD   CE   NZ                                   
 470     LYS A 297    CG   CD   CE   NZ                                   
 470     LYS A 303    CG   CD   CE   NZ                                   
 470     SER A 306    OG                                                  
 470     LYS A 328    CG   CD   CE   NZ                                   
 470     LYS B  10    CG   CD   CE   NZ                                   
 470     GLU B  21    CG   CD   OE1  OE2                                  
 470     ASN B  36    CG   OD1  ND2                                       
 470     LYS B  52    CG   CD   CE   NZ                                   
 470     GLN B 129    CG   CD   OE1  NE2                                  
 470     LYS B 193    CG   CD   CE   NZ                                   
 470     LYS B 303    CG   CD   CE   NZ                                   
 470     GLU B 344    CG   CD   OE1  OE2                                  
 470     LYS B 359    CG   CD   CE   NZ                                   
 470     GLU C   7    CG   CD   OE1  OE2                                  
 470     LYS C  10    CG   CD   CE   NZ                                   
 470     GLU C  21    CG   CD   OE1  OE2                                  
 470     LYS C  37    CG   CD   CE   NZ                                   
 470     LYS C  82    CG   CD   CE   NZ                                   
 470     THR C  88    OG1  CG2                                            
 470     THR C  99    OG1  CG2                                            
 470     ILE C 101    CG1  CG2  CD1                                       
 470     GLN C 103    CG   CD   OE1  NE2                                  
 470     GLN C 108    CG   CD   OE1  NE2                                  
 470     THR C 113    OG1  CG2                                            
 470     GLN C 129    CG   CD   OE1  NE2                                  
 470     VAL C 131    CG1  CG2                                            
 470     LYS C 136    CG   CD   CE   NZ                                   
 470     ASP C 137    CG   OD1  OD2                                       
 470     LYS C 193    CG   CD   CE   NZ                                   
 470     LYS C 243    CG   CD   CE   NZ                                   
 470     ARG C 250    CG   CD   NE   CZ   NH1  NH2                        
 470     GLN C 257    CG   CD   OE1  NE2                                  
 470     ASP C 285    CG   OD1  OD2                                       
 470     GLU C 289    CG   CD   OE1  OE2                                  
 470     LYS C 294    CG   CD   CE   NZ                                   
 470     LYS C 297    CG   CD   CE   NZ                                   
 470     ILE C 301    CG1  CG2  CD1                                       
 470     LYS C 303    CG   CD   CE   NZ                                   
 470     GLU C 304    CG   CD   OE1  OE2                                  
 470     SER C 306    OG                                                  
 470     GLU C 344    CG   CD   OE1  OE2                                  
 470     LYS C 358    CG   CD   CE   NZ                                   
 470     LYS D   4    CG   CD   CE   NZ                                   
 470     GLN D   6    CG   CD   OE1  NE2                                  
 470     GLU D   7    CG   CD   OE1  OE2                                  
 470     ILE D   8    CG1  CG2  CD1                                       
 470     LYS D  10    CG   CD   CE   NZ                                   
 470     GLN D  14    CG   CD   OE1  NE2                                  
 470     GLU D  21    CG   CD   OE1  OE2                                  
 470     ASN D  35    CG   OD1  ND2                                       
 470     ASN D  36    CG   OD1  ND2                                       
 470     LYS D  37    CG   CD   CE   NZ                                   
 470     LYS D  80    CG   CD   CE   NZ                                   
 470     GLN D 103    CG   CD   OE1  NE2                                  
 470     GLN D 129    CG   CD   OE1  NE2                                  
 470     LYS D 141    CG   CD   CE   NZ                                   
 470     LYS D 185    CG   CD   CE   NZ                                   
 470     LYS D 193    CG   CD   CE   NZ                                   
 470     GLN D 257    CG   CD   OE1  NE2                                  
 470     LYS D 297    CG   CD   CE   NZ                                   
 470     SER D 302    OG                                                  
 470     LYS D 303    CG   CD   CE   NZ                                   
 470     SER D 306    OG                                                  
 470     ILE D 331    CG1  CG2  CD1                                       
 470     GLU D 344    CG   CD   OE1  OE2                                  
 470     ILE D 357    CG1  CG2  CD1                                       
 500                                                                      
 500 GEOMETRY AND STEREOCHEMISTRY                                         
 500 SUBTOPIC: CLOSE CONTACTS IN SAME ASYMMETRIC UNIT                     
 500                                                                      
 500 THE FOLLOWING ATOMS ARE IN CLOSE CONTACT.                            
 500                                                                      
 500  ATM1  RES C  SSEQI   ATM2  RES C  SSEQI           DISTANCE          
 500   OD2  ASP A    87     OH   TYR A    92              2.17            
 500   OG   SER D    64     O3   A0Y D   401              2.18            
 500                                                                      
 500 REMARK: NULL                                                         
 500                                                                      
 500 GEOMETRY AND STEREOCHEMISTRY                                         
 500 SUBTOPIC: TORSION ANGLES                                             
 500                                                                      
 500 TORSION ANGLES OUTSIDE THE EXPECTED RAMACHANDRAN REGIONS:            
 500 (M=MODEL NUMBER; RES=RESIDUE NAME; C=CHAIN IDENTIFIER;               
 500 SSEQ=SEQUENCE NUMBER; I=INSERTION CODE).                             
 500                                                                      
 500 STANDARD TABLE:                                                      
 500 FORMAT:(10X,I3,1X,A3,1X,A1,I4,A1,4X,F7.2,3X,F7.2)                    
 500                                                                      
 500 EXPECTED VALUES: GJ KLEYWEGT AND TA JONES (1996). PHI/PSI-           
 500 CHOLOGY: RAMACHANDRAN REVISITED. STRUCTURE 4, 1395 - 1400            
 500                                                                      
 500  M RES CSSEQI        PSI       PHI                                   
 500    ASN A  36       17.74     54.34                                   
 500    LYS A  80        6.99    -69.41                                   
 500    ASN A  98       -6.53     70.97                                   
 500    GLN A 126      -49.47   -148.63                                   
 500    LYS A 141      -75.45   -139.10                                   
 500    ASN A 167      -15.04     80.91                                   
 500    HIS A 186       42.07   -140.07                                   
 500    TYR A 222       22.93   -161.36                                   
 500    ASN A 263     -110.90     45.35                                   
 500    ALA A 268     -166.67   -117.00                                   
 500    SER A 302      -67.96   -106.40                                   
 500    ASN B  36        9.90     59.69                                   
 500    ASN B  98       14.90     57.53                                   
 500    ASN B 116       49.87   -159.13                                   
 500    GLN B 126      -54.85   -126.11                                   
 500    LYS B 141      -72.08   -135.77                                   
 500    TYR B 222       21.25   -160.48                                   
 500    ASN B 263     -112.55     44.12                                   
 500    ASP C  87      170.57    -47.02                                   
 500    ASN C 116       32.28   -150.97                                   
 500    GLN C 126      -57.78   -128.46                                   
 500    LYS C 141      -89.43   -135.37                                   
 500    ASN C 167       44.35     71.12                                   
 500    TYR C 222       31.50   -152.69                                   
 500    TYR C 260     -166.20   -163.47                                   
 500    ASN C 263     -123.73     52.49                                   
 500    ALA C 268     -169.89   -102.82                                   
 500    SER C 302      -77.72    -64.88                                   
 500    ASN C 355        6.19    -54.82                                   
 500    ASN D 116       45.61   -152.33                                   
 500    GLN D 126      -63.16   -135.53                                   
 500    LYS D 141      -69.67   -125.71                                   
 500    ASN D 167      -42.66     72.89                                   
 500    THR D 177      -56.30   -127.40                                   
 500    TYR D 222       16.95   -161.81                                   
 500    ASN D 263     -121.19     69.51                                   
 500    SER D 302      -77.70    -83.99                                   
 500    ASN D 330       42.47     37.50                                   
 500                                                                      
 500 REMARK: NULL                                                         
 800                                                                      
 800 SITE                                                                 
 800 SITE_IDENTIFIER: AC1                                                 
 800 EVIDENCE_CODE: SOFTWARE                                              
 800 SITE_DESCRIPTION: binding site for residue A0Y A 401                 
 800                                                                      
 800 SITE_IDENTIFIER: AC2                                                 
 800 EVIDENCE_CODE: SOFTWARE                                              
 800 SITE_DESCRIPTION: binding site for Di-peptide A0Y B 401 and SER B    
 800  64                                                                  
 800                                                                      
 800 SITE_IDENTIFIER: AC3                                                 
 800 EVIDENCE_CODE: SOFTWARE                                              
 800 SITE_DESCRIPTION: binding site for Di-peptide A0Y C 401 and SER C    
 800  64                                                                  
 800                                                                      
 800 SITE_IDENTIFIER: AC4                                                 
 800 EVIDENCE_CODE: SOFTWARE                                              
 800 SITE_DESCRIPTION: binding site for Di-peptide A0Y D 401 and SER D    
 800  64                                                                  

>  <DBREF>
 5WAF A    0   359  UNP    Q6DRA1   Q6DRA1_ACIBA    24    383             
 5WAF B    0   359  UNP    Q6DRA1   Q6DRA1_ACIBA    24    383             
 5WAF C    0   359  UNP    Q6DRA1   Q6DRA1_ACIBA    24    383             
 5WAF D    0   359  UNP    Q6DRA1   Q6DRA1_ACIBA    24    383             

>  <SEQADV>
 5WAF MET A   -1  UNP  Q6DRA1              EXPRESSION TAG                 
 5WAF MET B   -1  UNP  Q6DRA1              EXPRESSION TAG                 
 5WAF MET C   -1  UNP  Q6DRA1              EXPRESSION TAG                 
 5WAF MET D   -1  UNP  Q6DRA1              EXPRESSION TAG                 

>  <SEQRES>
   1 A  361  MET ASP ASN THR PRO LYS ASP GLN GLU ILE LYS LYS LEU          
   2 A  361  VAL ASP GLN ASN PHE LYS PRO LEU LEU GLU LYS TYR ASP          
   3 A  361  VAL PRO GLY MET ALA VAL GLY VAL ILE GLN ASN ASN LYS          
   4 A  361  LYS TYR GLU MET TYR TYR GLY LEU GLN SER VAL GLN ASP          
   5 A  361  LYS LYS ALA VAL ASN SER ASN THR ILE PHE GLU LEU GLY          
   6 A  361  SER VAL SER LYS LEU PHE THR ALA THR ALA GLY GLY TYR          
   7 A  361  ALA LYS ASN LYS GLY LYS ILE SER PHE ASP ASP THR PRO          
   8 A  361  GLY LYS TYR TRP LYS GLU LEU LYS ASN THR PRO ILE ASP          
   9 A  361  GLN VAL ASN LEU LEU GLN LEU ALA THR TYR THR SER GLY          
  10 A  361  ASN LEU ALA LEU GLN PHE PRO ASP GLU VAL GLN THR ASP          
  11 A  361  GLN GLN VAL LEU THR PHE PHE LYS ASP TRP LYS PRO LYS          
  12 A  361  ASN PRO ILE GLY GLU TYR ARG GLN TYR SER ASN PRO SER          
  13 A  361  ILE GLY LEU PHE GLY LYS VAL VAL ALA LEU SER MET ASN          
  14 A  361  LYS PRO PHE ASP GLN VAL LEU GLU LYS THR ILE PHE PRO          
  15 A  361  ALA LEU GLY LEU LYS HIS SER TYR VAL ASN VAL PRO LYS          
  16 A  361  THR GLN MET GLN ASN TYR ALA PHE GLY TYR ASN GLN GLU          
  17 A  361  ASN GLN PRO ILE ARG VAL ASN PRO GLY PRO LEU ASP ALA          
  18 A  361  PRO ALA TYR GLY VAL LYS SER THR LEU PRO ASP MET LEU          
  19 A  361  SER PHE ILE HIS ALA ASN LEU ASN PRO GLN LYS TYR PRO          
  20 A  361  THR ASP ILE GLN ARG ALA ILE ASN GLU THR HIS GLN GLY          
  21 A  361  ARG TYR GLN VAL ASN THR MET TYR GLN ALA LEU GLY TRP          
  22 A  361  GLU GLU PHE SER TYR PRO ALA THR LEU GLN THR LEU LEU          
  23 A  361  ASP SER ASN SER GLU GLN ILE VAL MET LYS PRO ASN LYS          
  24 A  361  VAL THR ALA ILE SER LYS GLU PRO SER VAL LYS MET TYR          
  25 A  361  HIS LYS THR GLY SER THR SER GLY PHE GLY THR TYR VAL          
  26 A  361  VAL PHE ILE PRO LYS GLU ASN ILE GLY LEU VAL MET LEU          
  27 A  361  THR ASN LYS ARG ILE PRO ASN GLU GLU ARG ILE LYS ALA          
  28 A  361  ALA TYR VAL VAL LEU ASN ALA ILE LYS LYS                      
   1 B  361  MET ASP ASN THR PRO LYS ASP GLN GLU ILE LYS LYS LEU          
   2 B  361  VAL ASP GLN ASN PHE LYS PRO LEU LEU GLU LYS TYR ASP          
   3 B  361  VAL PRO GLY MET ALA VAL GLY VAL ILE GLN ASN ASN LYS          
   4 B  361  LYS TYR GLU MET TYR TYR GLY LEU GLN SER VAL GLN ASP          
   5 B  361  LYS LYS ALA VAL ASN SER ASN THR ILE PHE GLU LEU GLY          
   6 B  361  SER VAL SER LYS LEU PHE THR ALA THR ALA GLY GLY TYR          
   7 B  361  ALA LYS ASN LYS GLY LYS ILE SER PHE ASP ASP THR PRO          
   8 B  361  GLY LYS TYR TRP LYS GLU LEU LYS ASN THR PRO ILE ASP          
   9 B  361  GLN VAL ASN LEU LEU GLN LEU ALA THR TYR THR SER GLY          
  10 B  361  ASN LEU ALA LEU GLN PHE PRO ASP GLU VAL GLN THR ASP          
  11 B  361  GLN GLN VAL LEU THR PHE PHE LYS ASP TRP LYS PRO LYS          
  12 B  361  ASN PRO ILE GLY GLU TYR ARG GLN TYR SER ASN PRO SER          
  13 B  361  ILE GLY LEU PHE GLY LYS VAL VAL ALA LEU SER MET ASN          
  14 B  361  LYS PRO PHE ASP GLN VAL LEU GLU LYS THR ILE PHE PRO          
  15 B  361  ALA LEU GLY LEU LYS HIS SER TYR VAL ASN VAL PRO LYS          
  16 B  361  THR GLN MET GLN ASN TYR ALA PHE GLY TYR ASN GLN GLU          
  17 B  361  ASN GLN PRO ILE ARG VAL ASN PRO GLY PRO LEU ASP ALA          
  18 B  361  PRO ALA TYR GLY VAL LYS SER THR LEU PRO ASP MET LEU          
  19 B  361  SER PHE ILE HIS ALA ASN LEU ASN PRO GLN LYS TYR PRO          
  20 B  361  THR ASP ILE GLN ARG ALA ILE ASN GLU THR HIS GLN GLY          
  21 B  361  ARG TYR GLN VAL ASN THR MET TYR GLN ALA LEU GLY TRP          
  22 B  361  GLU GLU PHE SER TYR PRO ALA THR LEU GLN THR LEU LEU          
  23 B  361  ASP SER ASN SER GLU GLN ILE VAL MET LYS PRO ASN LYS          
  24 B  361  VAL THR ALA ILE SER LYS GLU PRO SER VAL LYS MET TYR          
  25 B  361  HIS LYS THR GLY SER THR SER GLY PHE GLY THR TYR VAL          
  26 B  361  VAL PHE ILE PRO LYS GLU ASN ILE GLY LEU VAL MET LEU          
  27 B  361  THR ASN LYS ARG ILE PRO ASN GLU GLU ARG ILE LYS ALA          
  28 B  361  ALA TYR VAL VAL LEU ASN ALA ILE LYS LYS                      
   1 C  361  MET ASP ASN THR PRO LYS ASP GLN GLU ILE LYS LYS LEU          
   2 C  361  VAL ASP GLN ASN PHE LYS PRO LEU LEU GLU LYS TYR ASP          
   3 C  361  VAL PRO GLY MET ALA VAL GLY VAL ILE GLN ASN ASN LYS          
   4 C  361  LYS TYR GLU MET TYR TYR GLY LEU GLN SER VAL GLN ASP          
   5 C  361  LYS LYS ALA VAL ASN SER ASN THR ILE PHE GLU LEU GLY          
   6 C  361  SER VAL SER LYS LEU PHE THR ALA THR ALA GLY GLY TYR          
   7 C  361  ALA LYS ASN LYS GLY LYS ILE SER PHE ASP ASP THR PRO          
   8 C  361  GLY LYS TYR TRP LYS GLU LEU LYS ASN THR PRO ILE ASP          
   9 C  361  GLN VAL ASN LEU LEU GLN LEU ALA THR TYR THR SER GLY          
  10 C  361  ASN LEU ALA LEU GLN PHE PRO ASP GLU VAL GLN THR ASP          
  11 C  361  GLN GLN VAL LEU THR PHE PHE LYS ASP TRP LYS PRO LYS          
  12 C  361  ASN PRO ILE GLY GLU TYR ARG GLN TYR SER ASN PRO SER          
  13 C  361  ILE GLY LEU PHE GLY LYS VAL VAL ALA LEU SER MET ASN          
  14 C  361  LYS PRO PHE ASP GLN VAL LEU GLU LYS THR ILE PHE PRO          
  15 C  361  ALA LEU GLY LEU LYS HIS SER TYR VAL ASN VAL PRO LYS          
  16 C  361  THR GLN MET GLN ASN TYR ALA PHE GLY TYR ASN GLN GLU          
  17 C  361  ASN GLN PRO ILE ARG VAL ASN PRO GLY PRO LEU ASP ALA          
  18 C  361  PRO ALA TYR GLY VAL LYS SER THR LEU PRO ASP MET LEU          
  19 C  361  SER PHE ILE HIS ALA ASN LEU ASN PRO GLN LYS TYR PRO          
  20 C  361  THR ASP ILE GLN ARG ALA ILE ASN GLU THR HIS GLN GLY          
  21 C  361  ARG TYR GLN VAL ASN THR MET TYR GLN ALA LEU GLY TRP          
  22 C  361  GLU GLU PHE SER TYR PRO ALA THR LEU GLN THR LEU LEU          
  23 C  361  ASP SER ASN SER GLU GLN ILE VAL MET LYS PRO ASN LYS          
  24 C  361  VAL THR ALA ILE SER LYS GLU PRO SER VAL LYS MET TYR          
  25 C  361  HIS LYS THR GLY SER THR SER GLY PHE GLY THR TYR VAL          
  26 C  361  VAL PHE ILE PRO LYS GLU ASN ILE GLY LEU VAL MET LEU          
  27 C  361  THR ASN LYS ARG ILE PRO ASN GLU GLU ARG ILE LYS ALA          
  28 C  361  ALA TYR VAL VAL LEU ASN ALA ILE LYS LYS                      
   1 D  361  MET ASP ASN THR PRO LYS ASP GLN GLU ILE LYS LYS LEU          
   2 D  361  VAL ASP GLN ASN PHE LYS PRO LEU LEU GLU LYS TYR ASP          
   3 D  361  VAL PRO GLY MET ALA VAL GLY VAL ILE GLN ASN ASN LYS          
   4 D  361  LYS TYR GLU MET TYR TYR GLY LEU GLN SER VAL GLN ASP          
   5 D  361  LYS LYS ALA VAL ASN SER ASN THR ILE PHE GLU LEU GLY          
   6 D  361  SER VAL SER LYS LEU PHE THR ALA THR ALA GLY GLY TYR          
   7 D  361  ALA LYS ASN LYS GLY LYS ILE SER PHE ASP ASP THR PRO          
   8 D  361  GLY LYS TYR TRP LYS GLU LEU LYS ASN THR PRO ILE ASP          
   9 D  361  GLN VAL ASN LEU LEU GLN LEU ALA THR TYR THR SER GLY          
  10 D  361  ASN LEU ALA LEU GLN PHE PRO ASP GLU VAL GLN THR ASP          
  11 D  361  GLN GLN VAL LEU THR PHE PHE LYS ASP TRP LYS PRO LYS          
  12 D  361  ASN PRO ILE GLY GLU TYR ARG GLN TYR SER ASN PRO SER          
  13 D  361  ILE GLY LEU PHE GLY LYS VAL VAL ALA LEU SER MET ASN          
  14 D  361  LYS PRO PHE ASP GLN VAL LEU GLU LYS THR ILE PHE PRO          
  15 D  361  ALA LEU GLY LEU LYS HIS SER TYR VAL ASN VAL PRO LYS          
  16 D  361  THR GLN MET GLN ASN TYR ALA PHE GLY TYR ASN GLN GLU          
  17 D  361  ASN GLN PRO ILE ARG VAL ASN PRO GLY PRO LEU ASP ALA          
  18 D  361  PRO ALA TYR GLY VAL LYS SER THR LEU PRO ASP MET LEU          
  19 D  361  SER PHE ILE HIS ALA ASN LEU ASN PRO GLN LYS TYR PRO          
  20 D  361  THR ASP ILE GLN ARG ALA ILE ASN GLU THR HIS GLN GLY          
  21 D  361  ARG TYR GLN VAL ASN THR MET TYR GLN ALA LEU GLY TRP          
  22 D  361  GLU GLU PHE SER TYR PRO ALA THR LEU GLN THR LEU LEU          
  23 D  361  ASP SER ASN SER GLU GLN ILE VAL MET LYS PRO ASN LYS          
  24 D  361  VAL THR ALA ILE SER LYS GLU PRO SER VAL LYS MET TYR          
  25 D  361  HIS LYS THR GLY SER THR SER GLY PHE GLY THR TYR VAL          
  26 D  361  VAL PHE ILE PRO LYS GLU ASN ILE GLY LEU VAL MET LEU          
  27 D  361  THR ASN LYS ARG ILE PRO ASN GLU GLU ARG ILE LYS ALA          
  28 D  361  ALA TYR VAL VAL LEU ASN ALA ILE LYS LYS                      

>  <HET>
 A0Y  A 401      27                                                       
 A0Y  B 401      27                                                       
 A0Y  C 401      27                                                       
 A0Y  D 401      27                                                       

>  <HETNAM>
     A0Y PHOSPHONOOXY-[[[4-(1~{H}-1,2,3,4-TETRAZOL-5-YL)-2-               
   2 A0Y  (TRIFLUOROMETHYL)PHENYL]SULFONYLAMINO]METHYL]BORINIC            
   3 A0Y  ACID                                                            

>  <FORMUL>
   5  A0Y    4(C9 H10 B F3 N5 O7 P S)                                     
   9  HOH   *349(H2 O)                                                    

>  <HELIX>
   1 AA1 GLU A    7  PHE A   16  1                                  10    
   2 AA2 LYS A   17  ASP A   24  1                                   8    
   3 AA3 VAL A   65  LYS A   80  1                                  16    
   4 AA4 THR A   88  TYR A   92  5                                   5    
   5 AA5 TRP A   93  LYS A   97  5                                   5    
   6 AA6 THR A   99  VAL A  104  5                                   6    
   7 AA7 ASN A  105  THR A  111  1                                   7    
   8 AA8 THR A  127  ASP A  137  1                                  11    
   9 AA9 SER A  151  ASN A  167  1                                  17    
  10 AB1 PRO A  169  THR A  177  1                                   9    
  11 AB2 THR A  177  LEU A  182  1                                   6    
  12 AB3 PRO A  192  TYR A  199  5                                   8    
  13 AB4 LEU A  217  GLY A  223  1                                   7    
  14 AB5 THR A  227  ASN A  240  1                                  14    
  15 AB6 PRO A  241  TYR A  244  5                                   4    
  16 AB7 PRO A  245  HIS A  256  1                                  12    
  17 AB8 THR A  279  SER A  286  1                                   8    
  18 AB9 SER A  288  LYS A  294  1                                   7    
  19 AC1 PRO A  327  GLU A  329  5                                   3    
  20 AC2 PRO A  342  LYS A  358  1                                  17    
  21 AC3 PRO B    3  PHE B   16  1                                  14    
  22 AC4 LYS B   17  ASP B   24  1                                   8    
  23 AC5 GLY B   63  VAL B   65  5                                   3    
  24 AC6 SER B   66  LYS B   80  1                                  15    
  25 AC7 THR B   88  TYR B   92  5                                   5    
  26 AC8 TRP B   93  LYS B   97  5                                   5    
  27 AC9 THR B   99  VAL B  104  5                                   6    
  28 AD1 ASN B  105  THR B  111  1                                   7    
  29 AD2 THR B  127  TRP B  138  1                                  12    
  30 AD3 SER B  151  MET B  166  1                                  16    
  31 AD4 PRO B  169  THR B  177  1                                   9    
  32 AD5 THR B  177  LEU B  182  1                                   6    
  33 AD6 PRO B  192  TYR B  199  5                                   8    
  34 AD7 LEU B  217  GLY B  223  1                                   7    
  35 AD8 THR B  227  ASN B  240  1                                  14    
  36 AD9 PRO B  241  TYR B  244  5                                   4    
  37 AE1 PRO B  245  HIS B  256  1                                  12    
  38 AE2 THR B  279  ASN B  287  1                                   9    
  39 AE3 SER B  288  LYS B  294  1                                   7    
  40 AE4 PRO B  327  GLU B  329  5                                   3    
  41 AE5 PRO B  342  ILE B  357  1                                  16    
  42 AE6 LYS C    4  PHE C   16  1                                  13    
  43 AE7 PHE C   16  ASP C   24  1                                   9    
  44 AE8 GLY C   63  VAL C   65  5                                   3    
  45 AE9 SER C   66  GLY C   81  1                                  16    
  46 AF1 THR C   88  TYR C   92  5                                   5    
  47 AF2 TRP C   93  LYS C   97  5                                   5    
  48 AF3 THR C   99  VAL C  104  5                                   6    
  49 AF4 ASN C  105  THR C  111  1                                   7    
  50 AF5 THR C  127  ASP C  137  1                                  11    
  51 AF6 SER C  151  ASN C  167  1                                  17    
  52 AF7 PRO C  169  THR C  177  1                                   9    
  53 AF8 THR C  177  GLY C  183  1                                   7    
  54 AF9 PRO C  192  TYR C  199  5                                   8    
  55 AG1 LEU C  217  GLY C  223  1                                   7    
  56 AG2 THR C  227  ASN C  240  1                                  14    
  57 AG3 PRO C  241  TYR C  244  5                                   4    
  58 AG4 PRO C  245  GLN C  257  1                                  13    
  59 AG5 THR C  279  ASN C  287  1                                   9    
  60 AG6 SER C  288  LYS C  294  1                                   7    
  61 AG7 PRO C  342  ASN C  355  1                                  14    
  62 AG8 LYS D    4  PHE D   16  1                                  13    
  63 AG9 LYS D   17  ASP D   24  1                                   8    
  64 AH1 VAL D   65  GLY D   81  1                                  17    
  65 AH2 THR D   88  TYR D   92  5                                   5    
  66 AH3 TRP D   93  LYS D   97  5                                   5    
  67 AH4 THR D   99  VAL D  104  5                                   6    
  68 AH5 ASN D  105  THR D  111  1                                   7    
  69 AH6 THR D  127  ASP D  137  1                                  11    
  70 AH7 SER D  151  ASN D  167  1                                  17    
  71 AH8 PRO D  169  THR D  177  1                                   9    
  72 AH9 THR D  177  GLY D  183  1                                   7    
  73 AI1 PRO D  192  TYR D  199  5                                   8    
  74 AI2 LEU D  217  GLY D  223  1                                   7    
  75 AI3 LEU D  228  ASN D  240  1                                  13    
  76 AI4 PRO D  241  TYR D  244  5                                   4    
  77 AI5 PRO D  245  GLN D  257  1                                  13    
  78 AI6 THR D  279  SER D  286  1                                   8    
  79 AI7 SER D  288  LYS D  294  1                                   7    
  80 AI8 PRO D  342  ILE D  357  1                                  16    

>  <SHEET>
   1 AA1 9 LYS A  52  ALA A  53  0                                        
   2 AA1 9 LYS A  37  SER A  47 -1  N  GLN A  46   O  LYS A  52           
   3 AA1 9 GLY A  27  GLN A  34 -1  N  GLN A  34   O  LYS A  37           
   4 AA1 9 ILE A 331  THR A 337 -1  O  VAL A 334   N  GLY A  31           
   5 AA1 9 PHE A 319  ILE A 326 -1  N  ILE A 326   O  ILE A 331           
   6 AA1 9 LYS A 308  THR A 316 -1  N  GLY A 314   O  THR A 321           
   7 AA1 9 GLU A 272  SER A 275 -1  N  GLU A 272   O  HIS A 311           
   8 AA1 9 MET A 265  GLN A 267 -1  N  TYR A 266   O  GLU A 273           
   9 AA1 9 TYR A 260  VAL A 262 -1  N  VAL A 262   O  MET A 265           
   1 AA2 2 PHE A  60  GLY A  63  0                                        
   2 AA2 2 VAL A 224  SER A 226 -1  O  SER A 226   N  PHE A  60           
   1 AA3 2 TYR A 147  ARG A 148  0                                        
   2 AA3 2 ASN A 296  LYS A 297 -1  O  ASN A 296   N  ARG A 148           
   1 AA4 2 GLY A 202  TYR A 203  0                                        
   2 AA4 2 PRO A 209  ILE A 210 -1  O  ILE A 210   N  GLY A 202           
   1 AA5 9 LYS B  52  ALA B  53  0                                        
   2 AA5 9 LYS B  37  SER B  47 -1  N  GLN B  46   O  LYS B  52           
   3 AA5 9 GLY B  27  GLN B  34 -1  N  VAL B  32   O  TYR B  39           
   4 AA5 9 ILE B 331  THR B 337 -1  O  LEU B 336   N  ALA B  29           
   5 AA5 9 PHE B 319  ILE B 326 -1  N  TYR B 322   O  MET B 335           
   6 AA5 9 LYS B 308  THR B 316 -1  N  GLY B 314   O  THR B 321           
   7 AA5 9 GLU B 272  SER B 275 -1  N  PHE B 274   O  MET B 309           
   8 AA5 9 MET B 265  GLN B 267 -1  N  TYR B 266   O  GLU B 273           
   9 AA5 9 TYR B 260  VAL B 262 -1  N  VAL B 262   O  MET B 265           
   1 AA6 2 PHE B  60  GLU B  61  0                                        
   2 AA6 2 LYS B 225  SER B 226 -1  O  SER B 226   N  PHE B  60           
   1 AA7 2 TYR B 147  ARG B 148  0                                        
   2 AA7 2 ASN B 296  LYS B 297 -1  O  ASN B 296   N  ARG B 148           
   1 AA8 2 GLY B 202  TYR B 203  0                                        
   2 AA8 2 PRO B 209  ILE B 210 -1  O  ILE B 210   N  GLY B 202           
   1 AA9 9 LYS C  52  ALA C  53  0                                        
   2 AA9 9 LYS C  37  SER C  47 -1  N  GLN C  46   O  LYS C  52           
   3 AA9 9 GLY C  27  GLN C  34 -1  N  MET C  28   O  TYR C  43           
   4 AA9 9 ILE C 331  THR C 337 -1  O  VAL C 334   N  GLY C  31           
   5 AA9 9 PHE C 319  ILE C 326 -1  N  ILE C 326   O  ILE C 331           
   6 AA9 9 LYS C 308  THR C 316 -1  N  GLY C 314   O  THR C 321           
   7 AA9 9 GLU C 272  SER C 275 -1  N  PHE C 274   O  MET C 309           
   8 AA9 9 MET C 265  GLN C 267 -1  N  TYR C 266   O  GLU C 273           
   9 AA9 9 TYR C 260  VAL C 262 -1  N  VAL C 262   O  MET C 265           
   1 AB1 2 PHE C  60  GLU C  61  0                                        
   2 AB1 2 LYS C 225  SER C 226 -1  O  SER C 226   N  PHE C  60           
   1 AB2 2 TYR C 147  ARG C 148  0                                        
   2 AB2 2 ASN C 296  LYS C 297 -1  O  ASN C 296   N  ARG C 148           
   1 AB3 2 GLY C 202  TYR C 203  0                                        
   2 AB3 2 PRO C 209  ILE C 210 -1  O  ILE C 210   N  GLY C 202           
   1 AB4 9 LYS D  52  ALA D  53  0                                        
   2 AB4 9 LYS D  37  SER D  47 -1  N  GLN D  46   O  LYS D  52           
   3 AB4 9 GLY D  27  GLN D  34 -1  N  VAL D  30   O  MET D  41           
   4 AB4 9 ILE D 331  THR D 337 -1  O  GLY D 332   N  ILE D  33           
   5 AB4 9 GLY D 320  ILE D 326 -1  N  ILE D 326   O  ILE D 331           
   6 AB4 9 LYS D 308  SER D 315 -1  N  GLY D 314   O  THR D 321           
   7 AB4 9 GLU D 272  SER D 275 -1  N  PHE D 274   O  MET D 309           
   8 AB4 9 MET D 265  GLN D 267 -1  N  TYR D 266   O  GLU D 273           
   9 AB4 9 TYR D 260  VAL D 262 -1  N  VAL D 262   O  MET D 265           
   1 AB5 2 ILE D  59  GLU D  61  0                                        
   2 AB5 2 LYS D 225  THR D 227 -1  O  SER D 226   N  PHE D  60           
   1 AB6 2 TYR D 147  ARG D 148  0                                        
   2 AB6 2 ASN D 296  LYS D 297 -1  O  ASN D 296   N  ARG D 148           
   1 AB7 2 GLY D 202  TYR D 203  0                                        
   2 AB7 2 PRO D 209  ILE D 210 -1  O  ILE D 210   N  GLY D 202           

>  <LINK>
       OG  SER A  64                 B1  A0Y A 401     1555   1555  1.47  
       OG  SER B  64                 B1  A0Y B 401     1555   1555  1.48  
       OG  SER C  64                 B1  A0Y C 401     1555   1555  1.44  
       OG  SER D  64                 B1  A0Y D 401     1555   1555  1.43  

>  <CISPEP>
   1 TYR A  276    PRO A  277          0        -2.35                     
   2 TYR B  276    PRO B  277          0         1.43                     
   3 TYR C  276    PRO C  277          0        -1.21                     
   4 TYR D  276    PRO D  277          0         6.82                     

>  <SITE>
   1 AC1 15 SER A  64  GLN A 120  TYR A 150  ASN A 152                    
   2 AC1 15 VAL A 212  ASN A 213  THR A 313  GLY A 314                    
   3 AC1 15 SER A 315  THR A 316  SER A 317  ARG A 340                    
   4 AC1 15 HOH A 502  HOH A 505  HOH A 557                               
   1 AC2 21 LEU B  62  GLY B  63  VAL B  65  SER B  66                    
   2 AC2 21 LYS B  67  GLN B 120  TYR B 150  ASN B 152                    
   3 AC2 21 VAL B 212  ASN B 213  ALA B 221  THR B 313                    
   4 AC2 21 GLY B 314  SER B 315  THR B 316  SER B 317                    
   5 AC2 21 ARG B 340  HOH B 509  HOH B 516  HOH B 543                    
   6 AC2 21 HOH B 580                                                     
   1 AC3 21 LEU C  62  GLY C  63  VAL C  65  SER C  66                    
   2 AC3 21 LYS C  67  LEU C 119  GLN C 120  TYR C 150                    
   3 AC3 21 ASN C 152  VAL C 212  ASN C 213  LYS C 312                    
   4 AC3 21 THR C 313  GLY C 314  SER C 315  THR C 316                    
   5 AC3 21 SER C 317  ARG C 340  HOH C 516  HOH C 526                    
   6 AC3 21 HOH C 561                                                     
   1 AC4 21 LEU D  62  GLY D  63  VAL D  65  SER D  66                    
   2 AC4 21 LYS D  67  LEU D 119  GLN D 120  TYR D 150                    
   3 AC4 21 ASN D 152  VAL D 212  ASN D 213  THR D 313                    
   4 AC4 21 GLY D 314  SER D 315  THR D 316  SER D 317                    
   5 AC4 21 ARG D 340  HOH D 503  HOH D 515  HOH D 524                    
   6 AC4 21 HOH D 525                                                     

>  <ORIGX1>
      1.000000  0.000000  0.000000        0.00000                         

>  <ORIGX2>
      0.000000  1.000000  0.000000        0.00000                         

>  <ORIGX3>
      0.000000  0.000000  1.000000        0.00000                         

>  <SCALE1>
      0.011233  0.000000  0.004686        0.00000                         

>  <SCALE2>
      0.000000  0.012303  0.000000        0.00000                         

>  <SCALE3>
      0.000000  0.000000  0.010185        0.00000                         

>  <MASTER>
      463    0    4   80   60    0   22    611470    4  112  112          

$$$$
