start_structures/Ligand_Substrate/Ligand_Complex_Stripped/A1J_5WAE.pdb
 OpenBabel08222315203D

 28 28  0  0  1  0  0  0  0  0999 V2000
   35.4740  -10.0980  -10.2590 N   0  0  0  0  0  0  0  0  0  0  0  0
   35.0230  -11.5240  -10.3030 C   0  0  2  0  0  0  0  0  0  0  0  0
   33.4870  -11.7100  -10.2650 C   0  0  0  0  0  0  0  0  0  0  0  0
   32.9680  -12.7700  -10.5400 O   0  0  0  0  0  0  0  0  0  0  0  0
   35.7260  -12.3360   -9.1840 C   0  0  0  0  0  0  0  0  0  0  0  0
   37.0950  -12.3830   -9.4930 O   0  0  0  0  0  0  0  0  0  0  0  0
   44.0770   -7.7160  -13.4290 C   0  0  0  0  0  0  0  0  0  0  0  0
   43.9280   -9.1010  -13.2860 C   0  0  0  0  0  0  0  0  0  0  0  0
   42.9040   -9.6410  -12.4850 C   0  0  0  0  0  0  0  0  0  0  0  0
   42.0320   -8.8010  -11.7940 C   0  0  0  0  0  0  0  0  0  0  0  0
   42.1650   -7.4160  -11.9470 C   0  0  0  0  0  0  0  0  0  0  0  0
   43.2050   -6.8630  -12.7200 C   0  0  0  0  0  0  0  0  0  0  0  0
   43.3230   -5.3660  -12.8760 C   0  0  0  0  0  0  0  0  0  0  0  0
   44.0990   -4.8070  -13.8890 O   0  0  0  0  0  0  0  0  0  0  0  0
   42.6190   -4.6490  -12.1170 O   0  0  0  0  0  0  0  0  0  0  0  0
   40.9240   -9.4090  -10.9480 C   0  0  0  0  0  0  0  0  0  0  0  0
   41.4420  -10.3350   -9.7060 S   0  0  0  0  0  0  0  0  0  0  0  0
   42.2390   -9.3470   -9.0010 O   0  0  0  0  0  0  0  0  0  0  0  0
   42.1410  -11.5270  -10.1760 O   0  0  0  0  0  0  0  0  0  0  0  0
   40.3040  -10.9110   -8.6980 N   0  0  0  0  0  0  0  0  0  0  0  0
   39.4230  -11.9150   -9.2440 C   0  0  0  0  0  0  0  0  0  0  0  0
   38.0200  -11.6740   -8.5430 B   0  0  2  0  0  0  0  0  0  0  0  0
   37.9240  -12.5280   -7.4570 O   0  0  0  0  0  0  0  0  0  0  0  0
   37.6040  -10.2490   -8.5640 O   0  0  0  0  0  0  0  0  0  0  0  0
   37.6290  -12.3480   -5.8980 P   0  0  0  0  0  0  0  0  0  0  0  0
   36.8190  -11.2120   -5.3300 O   0  0  0  0  0  0  0  0  0  0  0  0
   38.7800  -12.9000   -5.1050 O   0  0  0  0  0  0  0  0  0  0  0  0
   36.7180  -13.5790   -5.9560 O   0  0  0  0  0  0  0  0  0  0  0  0
  2  3  1  0  0  0  0
  2  1  1  1  0  0  0
  2  5  1  0  0  0  0
  4  3  2  0  0  0  0
  6  5  1  0  0  0  0
  6 22  1  0  0  0  0
  7  8  2  0  0  0  0
  7 12  1  0  0  0  0
  8  9  1  0  0  0  0
  9 10  2  0  0  0  0
 10 16  1  0  0  0  0
 11 10  1  0  0  0  0
 12 11  2  0  0  0  0
 13 12  1  0  0  0  0
 13 15  1  0  0  0  0
 14 13  2  0  0  0  0
 16 17  1  0  0  0  0
 17 18  2  0  0  0  0
 17 20  1  0  0  0  0
 19 17  2  0  0  0  0
 21 20  1  0  0  0  0
 21 22  1  0  0  0  0
 22 24  1  1  0  0  0
 22 23  1  0  0  0  0
 23 25  1  0  0  0  0
 25 26  1  0  0  0  0
 25 27  1  0  0  0  0
 28 25  2  0  0  0  0
M  END
>  <HEADER>
    HYDROLASE/HYDROLASE INHIBITOR           26-JUN-17   5WAE              

>  <TITLE>
    ADC-7 IN COMPLEX WITH BORONIC ACID TRANSITION STATE INHIBITOR CR167   

>  <COMPND>
    MOL_ID: 1;                                                            
   2 MOLECULE: BETA-LACTAMASE;                                            
   3 CHAIN: A, B, C, D;                                                   
   4 EC: 3.5.2.6;                                                         
   5 ENGINEERED: YES                                                      

>  <SOURCE>
    MOL_ID: 1;                                                            
   2 ORGANISM_SCIENTIFIC: ACINETOBACTER BAUMANNII;                        
   3 ORGANISM_TAXID: 470;                                                 
   4 EXPRESSION_SYSTEM: ESCHERICHIA COLI;                                 
   5 EXPRESSION_SYSTEM_TAXID: 562;                                        
   6 EXPRESSION_SYSTEM_STRAIN: BL21(DE3)                                  

>  <KEYWDS>
    INHIBITOR, BETA-LACTAMASE, BATSI, ADC-7, ANTIMICROBIAL PROTEIN,       
   2 HYDROLASE-HYDROLASE INHIBITOR COMPLEX                                

>  <EXPDTA>
    X-RAY DIFFRACTION                                                     

>  <AUTHOR>
    R.A.POWERS,B.J.WALLAR                                                 

>  <REVDAT>
   4   11-DEC-19 5WAE    1       REMARK                                   
   3   21-MAR-18 5WAE    1       JRNL                                     
   2   20-DEC-17 5WAE    1       JRNL                                     
   1   06-DEC-17 5WAE    0                                                

>  <JRNL>
      AUTH   A.A.BOUZA,H.C.SWANSON,K.A.SMOLEN,A.L.VANDINE,M.A.TARACILA,   
      AUTH 2 C.ROMAGNOLI,E.CASELLI,F.PRATI,R.A.BONOMO,R.A.POWERS,         
      AUTH 3 B.J.WALLAR                                                   
      TITL   STRUCTURE-BASED ANALYSIS OF BORONIC ACIDS AS INHIBITORS OF   
      TITL 2 ACINETOBACTER-DERIVED CEPHALOSPORINASE-7, A UNIQUE CLASS C   
      TITL 3 BETA-LACTAMASE.                                              
      REF    ACS INFECT DIS                V.   4   325 2018              
      REFN                   ESSN 2373-8227                               
      PMID   29144724                                                     
      DOI    10.1021/ACSINFECDIS.7B00152                                  

>  <REMARK>
   2                                                                      
   2 RESOLUTION.    1.80 ANGSTROMS.                                       
   3                                                                      
   3 REFINEMENT.                                                          
   3   PROGRAM     : REFMAC 5.8.0158                                      
   3   AUTHORS     : MURSHUDOV,SKUBAK,LEBEDEV,PANNU,STEINER,              
   3               : NICHOLLS,WINN,LONG,VAGIN                             
   3                                                                      
   3    REFINEMENT TARGET : NULL                                          
   3                                                                      
   3  DATA USED IN REFINEMENT.                                            
   3   RESOLUTION RANGE HIGH (ANGSTROMS) : 1.80                           
   3   RESOLUTION RANGE LOW  (ANGSTROMS) : 81.46                          
   3   DATA CUTOFF            (SIGMA(F)) : NULL                           
   3   COMPLETENESS FOR RANGE        (%) : 99.3                           
   3   NUMBER OF REFLECTIONS             : 118659                         
   3                                                                      
   3  FIT TO DATA USED IN REFINEMENT.                                     
   3   CROSS-VALIDATION METHOD          : THROUGHOUT                      
   3   FREE R VALUE TEST SET SELECTION  : RANDOM                          
   3   R VALUE     (WORKING + TEST SET) : 0.185                           
   3   R VALUE            (WORKING SET) : 0.183                           
   3   FREE R VALUE                     : 0.232                           
   3   FREE R VALUE TEST SET SIZE   (%) : 5.000                           
   3   FREE R VALUE TEST SET COUNT      : 6269                            
   3                                                                      
   3  FIT IN THE HIGHEST RESOLUTION BIN.                                  
   3   TOTAL NUMBER OF BINS USED           : 20                           
   3   BIN RESOLUTION RANGE HIGH       (A) : 1.80                         
   3   BIN RESOLUTION RANGE LOW        (A) : 1.85                         
   3   REFLECTION IN BIN     (WORKING SET) : 8749                         
   3   BIN COMPLETENESS (WORKING+TEST) (%) : 99.22                        
   3   BIN R VALUE           (WORKING SET) : 0.2670                       
   3   BIN FREE R VALUE SET COUNT          : 480                          
   3   BIN FREE R VALUE                    : 0.2930                       
   3                                                                      
   3  NUMBER OF NON-HYDROGEN ATOMS USED IN REFINEMENT.                    
   3   PROTEIN ATOMS            : 11100                                   
   3   NUCLEIC ACID ATOMS       : 0                                       
   3   HETEROGEN ATOMS          : 88                                      
   3   SOLVENT ATOMS            : 586                                     
   3                                                                      
   3  B VALUES.                                                           
   3   FROM WILSON PLOT           (A**2) : NULL                           
   3   MEAN B VALUE      (OVERALL, A**2) : 32.77                          
   3   OVERALL ANISOTROPIC B VALUE.                                       
   3    B11 (A**2) : 0.35000                                              
   3    B22 (A**2) : -1.67000                                             
   3    B33 (A**2) : 0.35000                                              
   3    B12 (A**2) : 0.00000                                              
   3    B13 (A**2) : 0.97000                                              
   3    B23 (A**2) : 0.00000                                              
   3                                                                      
   3  ESTIMATED OVERALL COORDINATE ERROR.                                 
   3   ESU BASED ON R VALUE                            (A): 0.137         
   3   ESU BASED ON FREE R VALUE                       (A): 0.135         
   3   ESU BASED ON MAXIMUM LIKELIHOOD                 (A): 0.105         
   3   ESU FOR B VALUES BASED ON MAXIMUM LIKELIHOOD (A**2): 3.469         
   3                                                                      
   3 CORRELATION COEFFICIENTS.                                            
   3   CORRELATION COEFFICIENT FO-FC      : 0.961                         
   3   CORRELATION COEFFICIENT FO-FC FREE : 0.937                         
   3                                                                      
   3  RMS DEVIATIONS FROM IDEAL VALUES        COUNT    RMS    WEIGHT      
   3   BOND LENGTHS REFINED ATOMS        (A): 11531 ; 0.019 ; 0.020       
   3   BOND LENGTHS OTHERS               (A): 10444 ; 0.002 ; 0.020       
   3   BOND ANGLES REFINED ATOMS   (DEGREES): 15724 ; 1.952 ; 1.972       
   3   BOND ANGLES OTHERS          (DEGREES): 24388 ; 1.080 ; 3.000       
   3   TORSION ANGLES, PERIOD 1    (DEGREES):  1439 ; 7.193 ; 5.000       
   3   TORSION ANGLES, PERIOD 2    (DEGREES):   499 ;41.768 ;25.711       
   3   TORSION ANGLES, PERIOD 3    (DEGREES):  1906 ;15.061 ;15.000       
   3   TORSION ANGLES, PERIOD 4    (DEGREES):    23 ;21.160 ;15.000       
   3   CHIRAL-CENTER RESTRAINTS       (A**3):  1741 ; 0.147 ; 0.200       
   3   GENERAL PLANES REFINED ATOMS      (A): 12786 ; 0.010 ; 0.021       
   3   GENERAL PLANES OTHERS             (A):  2173 ; 0.002 ; 0.020       
   3   NON-BONDED CONTACTS REFINED ATOMS (A):  NULL ;  NULL ;  NULL       
   3   NON-BONDED CONTACTS OTHERS        (A):  NULL ;  NULL ;  NULL       
   3   NON-BONDED TORSION REFINED ATOMS  (A):  NULL ;  NULL ;  NULL       
   3   NON-BONDED TORSION OTHERS         (A):  NULL ;  NULL ;  NULL       
   3   H-BOND (X...Y) REFINED ATOMS      (A):  NULL ;  NULL ;  NULL       
   3   H-BOND (X...Y) OTHERS             (A):  NULL ;  NULL ;  NULL       
   3   POTENTIAL METAL-ION REFINED ATOMS (A):  NULL ;  NULL ;  NULL       
   3   POTENTIAL METAL-ION OTHERS        (A):  NULL ;  NULL ;  NULL       
   3   SYMMETRY VDW REFINED ATOMS        (A):  NULL ;  NULL ;  NULL       
   3   SYMMETRY VDW OTHERS               (A):  NULL ;  NULL ;  NULL       
   3   SYMMETRY H-BOND REFINED ATOMS     (A):  NULL ;  NULL ;  NULL       
   3   SYMMETRY H-BOND OTHERS            (A):  NULL ;  NULL ;  NULL       
   3   SYMMETRY METAL-ION REFINED ATOMS  (A):  NULL ;  NULL ;  NULL       
   3   SYMMETRY METAL-ION OTHERS         (A):  NULL ;  NULL ;  NULL       
   3                                                                      
   3  ISOTROPIC THERMAL FACTOR RESTRAINTS.     COUNT   RMS    WEIGHT      
   3   MAIN-CHAIN BOND REFINED ATOMS  (A**2):  5713 ; 2.890 ; 3.167       
   3   MAIN-CHAIN BOND OTHER ATOMS    (A**2):  5712 ; 2.889 ; 3.166       
   3   MAIN-CHAIN ANGLE REFINED ATOMS (A**2):  7138 ; 3.625 ; 4.732       
   3   MAIN-CHAIN ANGLE OTHER ATOMS   (A**2):  7139 ; 3.626 ; 4.733       
   3   SIDE-CHAIN BOND REFINED ATOMS  (A**2):  5818 ; 3.556 ; 3.525       
   3   SIDE-CHAIN BOND OTHER ATOMS    (A**2):  5813 ; 3.555 ; 3.524       
   3   SIDE-CHAIN ANGLE REFINED ATOMS (A**2):  NULL ;  NULL ;  NULL       
   3   SIDE-CHAIN ANGLE OTHER ATOMS   (A**2):  8571 ; 5.106 ; 5.145       
   3   LONG RANGE B REFINED ATOMS     (A**2): 12918 ; 6.216 ;38.013       
   3   LONG RANGE B OTHER ATOMS       (A**2): 12833 ; 6.207 ;37.927       
   3                                                                      
   3 ANISOTROPIC THERMAL FACTOR RESTRAINTS.    COUNT   RMS   WEIGHT       
   3   RIGID-BOND RESTRAINTS          (A**2):  NULL ;  NULL ;  NULL       
   3   SPHERICITY; FREE ATOMS         (A**2):  NULL ;  NULL ;  NULL       
   3   SPHERICITY; BONDED ATOMS       (A**2):  NULL ;  NULL ;  NULL       
   3                                                                      
   3  NCS RESTRAINTS STATISTICS                                           
   3   NUMBER OF DIFFERENT NCS GROUPS : NULL                              
   3                                                                      
   3  TLS DETAILS                                                         
   3   NUMBER OF TLS GROUPS  : NULL                                       
   3                                                                      
   3  BULK SOLVENT MODELLING.                                             
   3   METHOD USED : NULL                                                 
   3   PARAMETERS FOR MASK CALCULATION                                    
   3   VDW PROBE RADIUS   : 1.20                                          
   3   ION PROBE RADIUS   : 0.80                                          
   3   SHRINKAGE RADIUS   : 0.80                                          
   3                                                                      
   3  OTHER REFINEMENT REMARKS: HYDROGENS HAVE BEEN ADDED IN THE RIDING   
   3  POSITIONS                                                           
   4                                                                      
   4 5WAE COMPLIES WITH FORMAT V. 3.30, 13-JUL-11                         
 100                                                                      
 100 THIS ENTRY HAS BEEN PROCESSED BY RCSB ON 05-JUL-17.                  
 100 THE DEPOSITION ID IS D_1000228584.                                   
 200                                                                      
 200 EXPERIMENTAL DETAILS                                                 
 200  EXPERIMENT TYPE                : X-RAY DIFFRACTION                  
 200  DATE OF DATA COLLECTION        : 13-AUG-13                          
 200  TEMPERATURE           (KELVIN) : 100                                
 200  PH                             : 5.0                                
 200  NUMBER OF CRYSTALS USED        : 1                                  
 200                                                                      
 200  SYNCHROTRON              (Y/N) : Y                                  
 200  RADIATION SOURCE               : APS                                
 200  BEAMLINE                       : 21-ID-D                            
 200  X-RAY GENERATOR MODEL          : NULL                               
 200  MONOCHROMATIC OR LAUE    (M/L) : M                                  
 200  WAVELENGTH OR RANGE        (A) : 1.07820                            
 200  MONOCHROMATOR                  : NULL                               
 200  OPTICS                         : NULL                               
 200                                                                      
 200  DETECTOR TYPE                  : CCD                                
 200  DETECTOR MANUFACTURER          : MARMOSAIC 300 MM CCD               
 200  INTENSITY-INTEGRATION SOFTWARE : XDS                                
 200  DATA SCALING SOFTWARE          : XSCALE                             
 200                                                                      
 200  NUMBER OF UNIQUE REFLECTIONS   : 124952                             
 200  RESOLUTION RANGE HIGH      (A) : 1.804                              
 200  RESOLUTION RANGE LOW       (A) : 81.459                             
 200  REJECTION CRITERIA  (SIGMA(I)) : NULL                               
 200                                                                      
 200 OVERALL.                                                             
 200  COMPLETENESS FOR RANGE     (%) : 99.4                               
 200  DATA REDUNDANCY                : 3.800                              
 200  R MERGE                    (I) : 0.05900                            
 200  R SYM                      (I) : NULL                               
 200  <I/SIGMA(I)> FOR THE DATA SET  : 15.1000                            
 200                                                                      
 200 IN THE HIGHEST RESOLUTION SHELL.                                     
 200  HIGHEST RESOLUTION SHELL, RANGE HIGH (A) : 1.80                     
 200  HIGHEST RESOLUTION SHELL, RANGE LOW  (A) : 1.81                     
 200  COMPLETENESS FOR SHELL     (%) : 99.2                               
 200  DATA REDUNDANCY IN SHELL       : 3.80                               
 200  R MERGE FOR SHELL          (I) : 0.66200                            
 200  R SYM FOR SHELL            (I) : NULL                               
 200  <I/SIGMA(I)> FOR SHELL         : 2.100                              
 200                                                                      
 200 DIFFRACTION PROTOCOL: SINGLE WAVELENGTH                              
 200 METHOD USED TO DETERMINE THE STRUCTURE: MOLECULAR REPLACEMENT        
 200 SOFTWARE USED: PHASER                                                
 200 STARTING MODEL: 4U0T                                                 
 200                                                                      
 200 REMARK: NULL                                                         
 280                                                                      
 280 CRYSTAL                                                              
 280 SOLVENT CONTENT, VS   (%): 42.10                                     
 280 MATTHEWS COEFFICIENT, VM (ANGSTROMS**3/DA): 2.12                     
 280                                                                      
 280 CRYSTALLIZATION CONDITIONS: ADC-7 (3MG/ML) IN 25% W/V POLYETHYLENE   
 280  GLYCOL (PEG) 1500, 0.1 M SUCCINATE/ PHOSPHATE/ GLYCINE, PH 5.0,     
 280  VAPOR DIFFUSION, HANGING DROP, TEMPERATURE 298K                     
 290                                                                      
 290 CRYSTALLOGRAPHIC SYMMETRY                                            
 290 SYMMETRY OPERATORS FOR SPACE GROUP: P 1 21 1                         
 290                                                                      
 290      SYMOP   SYMMETRY                                                
 290     NNNMMM   OPERATOR                                                
 290       1555   X,Y,Z                                                   
 290       2555   -X,Y+1/2,-Z                                             
 290                                                                      
 290     WHERE NNN -> OPERATOR NUMBER                                     
 290           MMM -> TRANSLATION VECTOR                                  
 290                                                                      
 290 CRYSTALLOGRAPHIC SYMMETRY TRANSFORMATIONS                            
 290 THE FOLLOWING TRANSFORMATIONS OPERATE ON THE ATOM/HETATM             
 290 RECORDS IN THIS ENTRY TO PRODUCE CRYSTALLOGRAPHICALLY                
 290 RELATED MOLECULES.                                                   
 290   SMTRY1   1  1.000000  0.000000  0.000000        0.00000            
 290   SMTRY2   1  0.000000  1.000000  0.000000        0.00000            
 290   SMTRY3   1  0.000000  0.000000  1.000000        0.00000            
 290   SMTRY1   2 -1.000000  0.000000  0.000000        0.00000            
 290   SMTRY2   2  0.000000  1.000000  0.000000       40.52250            
 290   SMTRY3   2  0.000000  0.000000 -1.000000        0.00000            
 290                                                                      
 290 REMARK: NULL                                                         
 300                                                                      
 300 BIOMOLECULE: 1, 2, 3, 4                                              
 300 SEE REMARK 350 FOR THE AUTHOR PROVIDED AND/OR PROGRAM                
 300 GENERATED ASSEMBLY INFORMATION FOR THE STRUCTURE IN                  
 300 THIS ENTRY. THE REMARK MAY ALSO PROVIDE INFORMATION ON               
 300 BURIED SURFACE AREA.                                                 
 350                                                                      
 350 COORDINATES FOR A COMPLETE MULTIMER REPRESENTING THE KNOWN           
 350 BIOLOGICALLY SIGNIFICANT OLIGOMERIZATION STATE OF THE                
 350 MOLECULE CAN BE GENERATED BY APPLYING BIOMT TRANSFORMATIONS          
 350 GIVEN BELOW.  BOTH NON-CRYSTALLOGRAPHIC AND                          
 350 CRYSTALLOGRAPHIC OPERATIONS ARE GIVEN.                               
 350                                                                      
 350 BIOMOLECULE: 1                                                       
 350 AUTHOR DETERMINED BIOLOGICAL UNIT: MONOMERIC                         
 350 SOFTWARE DETERMINED QUATERNARY STRUCTURE: MONOMERIC                  
 350 SOFTWARE USED: PISA                                                  
 350 APPLY THE FOLLOWING TO CHAINS: A                                     
 350   BIOMT1   1  1.000000  0.000000  0.000000        0.00000            
 350   BIOMT2   1  0.000000  1.000000  0.000000        0.00000            
 350   BIOMT3   1  0.000000  0.000000  1.000000        0.00000            
 350                                                                      
 350 BIOMOLECULE: 2                                                       
 350 AUTHOR DETERMINED BIOLOGICAL UNIT: MONOMERIC                         
 350 SOFTWARE DETERMINED QUATERNARY STRUCTURE: MONOMERIC                  
 350 SOFTWARE USED: PISA                                                  
 350 APPLY THE FOLLOWING TO CHAINS: B                                     
 350   BIOMT1   1  1.000000  0.000000  0.000000        0.00000            
 350   BIOMT2   1  0.000000  1.000000  0.000000        0.00000            
 350   BIOMT3   1  0.000000  0.000000  1.000000        0.00000            
 350                                                                      
 350 BIOMOLECULE: 3                                                       
 350 AUTHOR DETERMINED BIOLOGICAL UNIT: MONOMERIC                         
 350 SOFTWARE DETERMINED QUATERNARY STRUCTURE: MONOMERIC                  
 350 SOFTWARE USED: PISA                                                  
 350 APPLY THE FOLLOWING TO CHAINS: C                                     
 350   BIOMT1   1  1.000000  0.000000  0.000000        0.00000            
 350   BIOMT2   1  0.000000  1.000000  0.000000        0.00000            
 350   BIOMT3   1  0.000000  0.000000  1.000000        0.00000            
 350                                                                      
 350 BIOMOLECULE: 4                                                       
 350 AUTHOR DETERMINED BIOLOGICAL UNIT: MONOMERIC                         
 350 SOFTWARE DETERMINED QUATERNARY STRUCTURE: MONOMERIC                  
 350 SOFTWARE USED: PISA                                                  
 350 APPLY THE FOLLOWING TO CHAINS: D                                     
 350   BIOMT1   1  1.000000  0.000000  0.000000        0.00000            
 350   BIOMT2   1  0.000000  1.000000  0.000000        0.00000            
 350   BIOMT3   1  0.000000  0.000000  1.000000        0.00000            
 465                                                                      
 465 MISSING RESIDUES                                                     
 465 THE FOLLOWING RESIDUES WERE NOT LOCATED IN THE                       
 465 EXPERIMENT. (M=MODEL NUMBER; RES=RESIDUE NAME; C=CHAIN               
 465 IDENTIFIER; SSSEQ=SEQUENCE NUMBER; I=INSERTION CODE.)                
 465                                                                      
 465   M RES C SSSEQI                                                     
 465     MET A    -1                                                      
 465     ASP A     0                                                      
 465     ASN A     1                                                      
 465     THR A     2                                                      
 465     PRO A     3                                                      
 465     LYS A   359                                                      
 465     MET B    -1                                                      
 465     ASP B     0                                                      
 465     LYS B   359                                                      
 465     MET C    -1                                                      
 465     ASP C     0                                                      
 465     ASN C     1                                                      
 465     THR C     2                                                      
 465     LYS C   359                                                      
 465     MET D    -1                                                      
 465     ASP D     0                                                      
 465     ASN D     1                                                      
 465     THR D     2                                                      
 465     PRO D     3                                                      
 465     LYS D     4                                                      
 465     LYS D   303                                                      
 465     LYS D   359                                                      
 470                                                                      
 470 MISSING ATOM                                                         
 470 THE FOLLOWING RESIDUES HAVE MISSING ATOMS (M=MODEL NUMBER;           
 470 RES=RESIDUE NAME; C=CHAIN IDENTIFIER; SSEQ=SEQUENCE NUMBER;          
 470 I=INSERTION CODE):                                                   
 470   M RES CSSEQI  ATOMS                                                
 470     LYS A   4    CG   CD   CE   NZ                                   
 470     ASP A   5    CG   OD1  OD2                                       
 470     GLU A   7    CG   CD   OE1  OE2                                  
 470     LYS A  10    CG   CD   CE   NZ                                   
 470     LYS A  37    CG   CD   CE   NZ                                   
 470     LYS A  52    CG   CD   CE   NZ                                   
 470     LYS A  94    CG   CD   CE   NZ                                   
 470     GLU A 124    CG   CD   OE1  OE2                                  
 470     GLN A 129    CG   CD   OE1  NE2                                  
 470     LYS A 168    CG   CD   CE   NZ                                   
 470     LYS A 193    CG   CD   CE   NZ                                   
 470     GLN A 242    CG   CD   OE1  NE2                                  
 470     LYS A 243    CG   CD   CE   NZ                                   
 470     ARG A 250    CG   CD   NE   CZ   NH1  NH2                        
 470     LYS A 328    CG   CD   CE   NZ                                   
 470     GLU A 344    CG   CD   OE1  OE2                                  
 470     LYS B  10    CG   CD   CE   NZ                                   
 470     GLU B  21    CG   CD   OE1  OE2                                  
 470     LYS B  52    CG   CD   CE   NZ                                   
 470     LYS B 193    CG   CD   CE   NZ                                   
 470     LYS B 303    CG   CD   CE   NZ                                   
 470     GLU B 344    CG   CD   OE1  OE2                                  
 470     GLN C   6    CG   CD   OE1  NE2                                  
 470     GLU C   7    CG   CD   OE1  OE2                                  
 470     GLU C  21    CG   CD   OE1  OE2                                  
 470     LYS C  82    CG   CD   CE   NZ                                   
 470     LYS C  91    CG   CD   CE   NZ                                   
 470     LYS C  97    CG   CD   CE   NZ                                   
 470     ASP C 123    CG   OD1  OD2                                       
 470     ASP C 128    CG   OD1  OD2                                       
 470     GLN C 129    CG   CD   OE1  NE2                                  
 470     LYS C 136    CG   CD   CE   NZ                                   
 470     ASN C 167    CG   OD1  ND2                                       
 470     LYS C 193    CG   CD   CE   NZ                                   
 470     GLN C 257    CG   CD   OE1  NE2                                  
 470     GLU C 289    CG   CD   OE1  OE2                                  
 470     LYS C 303    CG   CD   CE   NZ                                   
 470     SER C 306    OG                                                  
 470     GLU C 344    CG   CD   OE1  OE2                                  
 470     ILE C 357    CG1  CG2  CD1                                       
 470     GLN D   6    CG   CD   OE1  NE2                                  
 470     GLU D   7    CG   CD   OE1  OE2                                  
 470     LYS D  10    CG   CD   CE   NZ                                   
 470     GLU D  21    CG   CD   OE1  OE2                                  
 470     LYS D  97    CG   CD   CE   NZ                                   
 470     GLU D 124    CG   CD   OE1  OE2                                  
 470     GLN D 129    CG   CD   OE1  NE2                                  
 470     LYS D 141    CG   CD   CE   NZ                                   
 470     LYS D 193    CG   CD   CE   NZ                                   
 470     GLN D 205    CG   CD   OE1  NE2                                  
 470     LYS D 243    CG   CD   CE   NZ                                   
 470     GLN D 249    CG   CD   OE1  NE2                                  
 470     GLN D 257    CG   CD   OE1  NE2                                  
 470     GLU D 289    CG   CD   OE1  OE2                                  
 470     SER D 302    OG                                                  
 470     SER D 306    OG                                                  
 470     GLU D 344    CG   CD   OE1  OE2                                  
 470     ILE D 357    CG1  CG2  CD1                                       
 470     LYS D 358    CG   CD   CE   NZ                                   
 500                                                                      
 500 GEOMETRY AND STEREOCHEMISTRY                                         
 500 SUBTOPIC: CLOSE CONTACTS IN SAME ASYMMETRIC UNIT                     
 500                                                                      
 500 THE FOLLOWING ATOMS ARE IN CLOSE CONTACT.                            
 500                                                                      
 500  ATM1  RES C  SSEQI   ATM2  RES C  SSEQI           DISTANCE          
 500   OG   SER B    64     O23  A1J B   401              2.17            
 500                                                                      
 500 REMARK: NULL                                                         
 500                                                                      
 500 GEOMETRY AND STEREOCHEMISTRY                                         
 500 SUBTOPIC: COVALENT BOND LENGTHS                                      
 500                                                                      
 500 THE STEREOCHEMICAL PARAMETERS OF THE FOLLOWING RESIDUES              
 500 HAVE VALUES WHICH DEVIATE FROM EXPECTED VALUES BY MORE               
 500 THAN 6*RMSD (M=MODEL NUMBER; RES=RESIDUE NAME; C=CHAIN               
 500 IDENTIFIER; SSEQ=SEQUENCE NUMBER; I=INSERTION CODE).                 
 500                                                                      
 500 STANDARD TABLE:                                                      
 500 FORMAT: (10X,I3,1X,2(A3,1X,A1,I4,A1,1X,A4,3X),1X,F6.3)               
 500                                                                      
 500 EXPECTED VALUES PROTEIN: ENGH AND HUBER, 1999                        
 500 EXPECTED VALUES NUCLEIC ACID: CLOWNEY ET AL 1996                     
 500                                                                      
 500  M RES CSSEQI ATM1   RES CSSEQI ATM2   DEVIATION                     
 500    TYR A 260   CE1   TYR A 260   CZ     -0.082                       
 500                                                                      
 500 REMARK: NULL                                                         
 500                                                                      
 500 GEOMETRY AND STEREOCHEMISTRY                                         
 500 SUBTOPIC: TORSION ANGLES                                             
 500                                                                      
 500 TORSION ANGLES OUTSIDE THE EXPECTED RAMACHANDRAN REGIONS:            
 500 (M=MODEL NUMBER; RES=RESIDUE NAME; C=CHAIN IDENTIFIER;               
 500 SSEQ=SEQUENCE NUMBER; I=INSERTION CODE).                             
 500                                                                      
 500 STANDARD TABLE:                                                      
 500 FORMAT:(10X,I3,1X,A3,1X,A1,I4,A1,4X,F7.2,3X,F7.2)                    
 500                                                                      
 500 EXPECTED VALUES: GJ KLEYWEGT AND TA JONES (1996). PHI/PSI-           
 500 CHOLOGY: RAMACHANDRAN REVISITED. STRUCTURE 4, 1395 - 1400            
 500                                                                      
 500  M RES CSSEQI        PSI       PHI                                   
 500    ASN A 116       54.05   -150.54                                   
 500    GLN A 126      -44.95   -138.25                                   
 500    LYS A 141      -68.79   -125.89                                   
 500    TYR A 222       22.54   -161.38                                   
 500    ASN A 240       71.67   -152.14                                   
 500    ASN A 263     -121.06     42.55                                   
 500    SER A 302      -68.65   -107.57                                   
 500    ASN B  36       12.63     58.77                                   
 500    ASN B 116       56.79   -160.59                                   
 500    GLN B 126      -50.70   -132.80                                   
 500    LYS B 141      -78.33   -129.59                                   
 500    TYR B 222       20.41   -158.29                                   
 500    ASN B 263     -118.11     54.00                                   
 500    ASN B 338       42.88   -103.73                                   
 500    SER C 114      -29.48    -39.84                                   
 500    ASN C 116       66.36   -151.06                                   
 500    GLN C 126      -61.58   -145.94                                   
 500    LYS C 141      -75.63   -120.32                                   
 500    TYR C 222       24.78   -155.28                                   
 500    ASN C 263     -131.54     52.74                                   
 500    ASN C 338       37.97    -96.16                                   
 500    ASN D  36       -6.18     69.38                                   
 500    ASN D 116       53.33   -165.65                                   
 500    GLN D 126      -54.14   -128.67                                   
 500    LYS D 141      -79.92   -124.28                                   
 500    LEU D 217       43.51     38.60                                   
 500    TYR D 222       24.14   -162.34                                   
 500    LYS D 243        5.59    -67.67                                   
 500    ASN D 263     -126.19     69.47                                   
 500    ASN D 330       55.46     21.73                                   
 500    ASN D 338       32.18    -99.85                                   
 500                                                                      
 500 REMARK: NULL                                                         
 800                                                                      
 800 SITE                                                                 
 800 SITE_IDENTIFIER: AC1                                                 
 800 EVIDENCE_CODE: SOFTWARE                                              
 800 SITE_DESCRIPTION: binding site for residue A1J A 401                 
 800                                                                      
 800 SITE_IDENTIFIER: AC2                                                 
 800 EVIDENCE_CODE: SOFTWARE                                              
 800 SITE_DESCRIPTION: binding site for Di-peptide A1J B 401 and SER B    
 800  64                                                                  
 800                                                                      
 800 SITE_IDENTIFIER: AC3                                                 
 800 EVIDENCE_CODE: SOFTWARE                                              
 800 SITE_DESCRIPTION: binding site for Di-peptide A1J C 401 and SER C    
 800  64                                                                  
 800                                                                      
 800 SITE_IDENTIFIER: AC4                                                 
 800 EVIDENCE_CODE: SOFTWARE                                              
 800 SITE_DESCRIPTION: binding site for Di-peptide A1J D 401 and SER D    
 800  64                                                                  

>  <DBREF>
 5WAE A    0   359  UNP    Q6DRA1   Q6DRA1_ACIBA    24    383             
 5WAE B    0   359  UNP    Q6DRA1   Q6DRA1_ACIBA    24    383             
 5WAE C    0   359  UNP    Q6DRA1   Q6DRA1_ACIBA    24    383             
 5WAE D    0   359  UNP    Q6DRA1   Q6DRA1_ACIBA    24    383             

>  <SEQADV>
 5WAE MET A   -1  UNP  Q6DRA1              EXPRESSION TAG                 
 5WAE MET B   -1  UNP  Q6DRA1              EXPRESSION TAG                 
 5WAE MET C   -1  UNP  Q6DRA1              EXPRESSION TAG                 
 5WAE MET D   -1  UNP  Q6DRA1              EXPRESSION TAG                 

>  <SEQRES>
   1 A  361  MET ASP ASN THR PRO LYS ASP GLN GLU ILE LYS LYS LEU          
   2 A  361  VAL ASP GLN ASN PHE LYS PRO LEU LEU GLU LYS TYR ASP          
   3 A  361  VAL PRO GLY MET ALA VAL GLY VAL ILE GLN ASN ASN LYS          
   4 A  361  LYS TYR GLU MET TYR TYR GLY LEU GLN SER VAL GLN ASP          
   5 A  361  LYS LYS ALA VAL ASN SER ASN THR ILE PHE GLU LEU GLY          
   6 A  361  SER VAL SER LYS LEU PHE THR ALA THR ALA GLY GLY TYR          
   7 A  361  ALA LYS ASN LYS GLY LYS ILE SER PHE ASP ASP THR PRO          
   8 A  361  GLY LYS TYR TRP LYS GLU LEU LYS ASN THR PRO ILE ASP          
   9 A  361  GLN VAL ASN LEU LEU GLN LEU ALA THR TYR THR SER GLY          
  10 A  361  ASN LEU ALA LEU GLN PHE PRO ASP GLU VAL GLN THR ASP          
  11 A  361  GLN GLN VAL LEU THR PHE PHE LYS ASP TRP LYS PRO LYS          
  12 A  361  ASN PRO ILE GLY GLU TYR ARG GLN TYR SER ASN PRO SER          
  13 A  361  ILE GLY LEU PHE GLY LYS VAL VAL ALA LEU SER MET ASN          
  14 A  361  LYS PRO PHE ASP GLN VAL LEU GLU LYS THR ILE PHE PRO          
  15 A  361  ALA LEU GLY LEU LYS HIS SER TYR VAL ASN VAL PRO LYS          
  16 A  361  THR GLN MET GLN ASN TYR ALA PHE GLY TYR ASN GLN GLU          
  17 A  361  ASN GLN PRO ILE ARG VAL ASN PRO GLY PRO LEU ASP ALA          
  18 A  361  PRO ALA TYR GLY VAL LYS SER THR LEU PRO ASP MET LEU          
  19 A  361  SER PHE ILE HIS ALA ASN LEU ASN PRO GLN LYS TYR PRO          
  20 A  361  THR ASP ILE GLN ARG ALA ILE ASN GLU THR HIS GLN GLY          
  21 A  361  ARG TYR GLN VAL ASN THR MET TYR GLN ALA LEU GLY TRP          
  22 A  361  GLU GLU PHE SER TYR PRO ALA THR LEU GLN THR LEU LEU          
  23 A  361  ASP SER ASN SER GLU GLN ILE VAL MET LYS PRO ASN LYS          
  24 A  361  VAL THR ALA ILE SER LYS GLU PRO SER VAL LYS MET TYR          
  25 A  361  HIS LYS THR GLY SER THR SER GLY PHE GLY THR TYR VAL          
  26 A  361  VAL PHE ILE PRO LYS GLU ASN ILE GLY LEU VAL MET LEU          
  27 A  361  THR ASN LYS ARG ILE PRO ASN GLU GLU ARG ILE LYS ALA          
  28 A  361  ALA TYR VAL VAL LEU ASN ALA ILE LYS LYS                      
   1 B  361  MET ASP ASN THR PRO LYS ASP GLN GLU ILE LYS LYS LEU          
   2 B  361  VAL ASP GLN ASN PHE LYS PRO LEU LEU GLU LYS TYR ASP          
   3 B  361  VAL PRO GLY MET ALA VAL GLY VAL ILE GLN ASN ASN LYS          
   4 B  361  LYS TYR GLU MET TYR TYR GLY LEU GLN SER VAL GLN ASP          
   5 B  361  LYS LYS ALA VAL ASN SER ASN THR ILE PHE GLU LEU GLY          
   6 B  361  SER VAL SER LYS LEU PHE THR ALA THR ALA GLY GLY TYR          
   7 B  361  ALA LYS ASN LYS GLY LYS ILE SER PHE ASP ASP THR PRO          
   8 B  361  GLY LYS TYR TRP LYS GLU LEU LYS ASN THR PRO ILE ASP          
   9 B  361  GLN VAL ASN LEU LEU GLN LEU ALA THR TYR THR SER GLY          
  10 B  361  ASN LEU ALA LEU GLN PHE PRO ASP GLU VAL GLN THR ASP          
  11 B  361  GLN GLN VAL LEU THR PHE PHE LYS ASP TRP LYS PRO LYS          
  12 B  361  ASN PRO ILE GLY GLU TYR ARG GLN TYR SER ASN PRO SER          
  13 B  361  ILE GLY LEU PHE GLY LYS VAL VAL ALA LEU SER MET ASN          
  14 B  361  LYS PRO PHE ASP GLN VAL LEU GLU LYS THR ILE PHE PRO          
  15 B  361  ALA LEU GLY LEU LYS HIS SER TYR VAL ASN VAL PRO LYS          
  16 B  361  THR GLN MET GLN ASN TYR ALA PHE GLY TYR ASN GLN GLU          
  17 B  361  ASN GLN PRO ILE ARG VAL ASN PRO GLY PRO LEU ASP ALA          
  18 B  361  PRO ALA TYR GLY VAL LYS SER THR LEU PRO ASP MET LEU          
  19 B  361  SER PHE ILE HIS ALA ASN LEU ASN PRO GLN LYS TYR PRO          
  20 B  361  THR ASP ILE GLN ARG ALA ILE ASN GLU THR HIS GLN GLY          
  21 B  361  ARG TYR GLN VAL ASN THR MET TYR GLN ALA LEU GLY TRP          
  22 B  361  GLU GLU PHE SER TYR PRO ALA THR LEU GLN THR LEU LEU          
  23 B  361  ASP SER ASN SER GLU GLN ILE VAL MET LYS PRO ASN LYS          
  24 B  361  VAL THR ALA ILE SER LYS GLU PRO SER VAL LYS MET TYR          
  25 B  361  HIS LYS THR GLY SER THR SER GLY PHE GLY THR TYR VAL          
  26 B  361  VAL PHE ILE PRO LYS GLU ASN ILE GLY LEU VAL MET LEU          
  27 B  361  THR ASN LYS ARG ILE PRO ASN GLU GLU ARG ILE LYS ALA          
  28 B  361  ALA TYR VAL VAL LEU ASN ALA ILE LYS LYS                      
   1 C  361  MET ASP ASN THR PRO LYS ASP GLN GLU ILE LYS LYS LEU          
   2 C  361  VAL ASP GLN ASN PHE LYS PRO LEU LEU GLU LYS TYR ASP          
   3 C  361  VAL PRO GLY MET ALA VAL GLY VAL ILE GLN ASN ASN LYS          
   4 C  361  LYS TYR GLU MET TYR TYR GLY LEU GLN SER VAL GLN ASP          
   5 C  361  LYS LYS ALA VAL ASN SER ASN THR ILE PHE GLU LEU GLY          
   6 C  361  SER VAL SER LYS LEU PHE THR ALA THR ALA GLY GLY TYR          
   7 C  361  ALA LYS ASN LYS GLY LYS ILE SER PHE ASP ASP THR PRO          
   8 C  361  GLY LYS TYR TRP LYS GLU LEU LYS ASN THR PRO ILE ASP          
   9 C  361  GLN VAL ASN LEU LEU GLN LEU ALA THR TYR THR SER GLY          
  10 C  361  ASN LEU ALA LEU GLN PHE PRO ASP GLU VAL GLN THR ASP          
  11 C  361  GLN GLN VAL LEU THR PHE PHE LYS ASP TRP LYS PRO LYS          
  12 C  361  ASN PRO ILE GLY GLU TYR ARG GLN TYR SER ASN PRO SER          
  13 C  361  ILE GLY LEU PHE GLY LYS VAL VAL ALA LEU SER MET ASN          
  14 C  361  LYS PRO PHE ASP GLN VAL LEU GLU LYS THR ILE PHE PRO          
  15 C  361  ALA LEU GLY LEU LYS HIS SER TYR VAL ASN VAL PRO LYS          
  16 C  361  THR GLN MET GLN ASN TYR ALA PHE GLY TYR ASN GLN GLU          
  17 C  361  ASN GLN PRO ILE ARG VAL ASN PRO GLY PRO LEU ASP ALA          
  18 C  361  PRO ALA TYR GLY VAL LYS SER THR LEU PRO ASP MET LEU          
  19 C  361  SER PHE ILE HIS ALA ASN LEU ASN PRO GLN LYS TYR PRO          
  20 C  361  THR ASP ILE GLN ARG ALA ILE ASN GLU THR HIS GLN GLY          
  21 C  361  ARG TYR GLN VAL ASN THR MET TYR GLN ALA LEU GLY TRP          
  22 C  361  GLU GLU PHE SER TYR PRO ALA THR LEU GLN THR LEU LEU          
  23 C  361  ASP SER ASN SER GLU GLN ILE VAL MET LYS PRO ASN LYS          
  24 C  361  VAL THR ALA ILE SER LYS GLU PRO SER VAL LYS MET TYR          
  25 C  361  HIS LYS THR GLY SER THR SER GLY PHE GLY THR TYR VAL          
  26 C  361  VAL PHE ILE PRO LYS GLU ASN ILE GLY LEU VAL MET LEU          
  27 C  361  THR ASN LYS ARG ILE PRO ASN GLU GLU ARG ILE LYS ALA          
  28 C  361  ALA TYR VAL VAL LEU ASN ALA ILE LYS LYS                      
   1 D  361  MET ASP ASN THR PRO LYS ASP GLN GLU ILE LYS LYS LEU          
   2 D  361  VAL ASP GLN ASN PHE LYS PRO LEU LEU GLU LYS TYR ASP          
   3 D  361  VAL PRO GLY MET ALA VAL GLY VAL ILE GLN ASN ASN LYS          
   4 D  361  LYS TYR GLU MET TYR TYR GLY LEU GLN SER VAL GLN ASP          
   5 D  361  LYS LYS ALA VAL ASN SER ASN THR ILE PHE GLU LEU GLY          
   6 D  361  SER VAL SER LYS LEU PHE THR ALA THR ALA GLY GLY TYR          
   7 D  361  ALA LYS ASN LYS GLY LYS ILE SER PHE ASP ASP THR PRO          
   8 D  361  GLY LYS TYR TRP LYS GLU LEU LYS ASN THR PRO ILE ASP          
   9 D  361  GLN VAL ASN LEU LEU GLN LEU ALA THR TYR THR SER GLY          
  10 D  361  ASN LEU ALA LEU GLN PHE PRO ASP GLU VAL GLN THR ASP          
  11 D  361  GLN GLN VAL LEU THR PHE PHE LYS ASP TRP LYS PRO LYS          
  12 D  361  ASN PRO ILE GLY GLU TYR ARG GLN TYR SER ASN PRO SER          
  13 D  361  ILE GLY LEU PHE GLY LYS VAL VAL ALA LEU SER MET ASN          
  14 D  361  LYS PRO PHE ASP GLN VAL LEU GLU LYS THR ILE PHE PRO          
  15 D  361  ALA LEU GLY LEU LYS HIS SER TYR VAL ASN VAL PRO LYS          
  16 D  361  THR GLN MET GLN ASN TYR ALA PHE GLY TYR ASN GLN GLU          
  17 D  361  ASN GLN PRO ILE ARG VAL ASN PRO GLY PRO LEU ASP ALA          
  18 D  361  PRO ALA TYR GLY VAL LYS SER THR LEU PRO ASP MET LEU          
  19 D  361  SER PHE ILE HIS ALA ASN LEU ASN PRO GLN LYS TYR PRO          
  20 D  361  THR ASP ILE GLN ARG ALA ILE ASN GLU THR HIS GLN GLY          
  21 D  361  ARG TYR GLN VAL ASN THR MET TYR GLN ALA LEU GLY TRP          
  22 D  361  GLU GLU PHE SER TYR PRO ALA THR LEU GLN THR LEU LEU          
  23 D  361  ASP SER ASN SER GLU GLN ILE VAL MET LYS PRO ASN LYS          
  24 D  361  VAL THR ALA ILE SER LYS GLU PRO SER VAL LYS MET TYR          
  25 D  361  HIS LYS THR GLY SER THR SER GLY PHE GLY THR TYR VAL          
  26 D  361  VAL PHE ILE PRO LYS GLU ASN ILE GLY LEU VAL MET LEU          
  27 D  361  THR ASN LYS ARG ILE PRO ASN GLU GLU ARG ILE LYS ALA          
  28 D  361  ALA TYR VAL VAL LEU ASN ALA ILE LYS LYS                      

>  <HET>
 A1J  A 401      22                                                       
 A1J  B 401      22                                                       
 A1J  C 401      22                                                       
 A1J  D 401      22                                                       

>  <HETNAM>
     A1J 3-(5,7,7-TRIHYDROXY-2,2,7-TRIOXO-6-OXA-2LAMBDA~6~-THIA-          
   2 A1J  3-AZA-7LAMBDA~5~-PHOSPHA-5-BORAHEPTAN-1-YL)BENZOIC              
   3 A1J  ACID                                                            

>  <FORMUL>
   5  A1J    4(C9 H13 B N O9 P S)                                         
   9  HOH   *586(H2 O)                                                    

>  <HELIX>
   1 AA1 GLN A    6  PHE A   16  1                                  11    
   2 AA2 PHE A   16  ASP A   24  1                                   9    
   3 AA3 VAL A   65  LYS A   80  1                                  16    
   4 AA4 THR A   88  TYR A   92  5                                   5    
   5 AA5 TRP A   93  LYS A   97  5                                   5    
   6 AA6 THR A   99  VAL A  104  5                                   6    
   7 AA7 ASN A  105  THR A  111  1                                   7    
   8 AA8 THR A  127  ASP A  137  1                                  11    
   9 AA9 SER A  151  MET A  166  1                                  16    
  10 AB1 PRO A  169  THR A  177  1                                   9    
  11 AB2 THR A  177  LEU A  182  1                                   6    
  12 AB3 PRO A  192  TYR A  199  5                                   8    
  13 AB4 LEU A  217  GLY A  223  1                                   7    
  14 AB5 THR A  227  ASN A  240  1                                  14    
  15 AB6 PRO A  241  TYR A  244  5                                   4    
  16 AB7 PRO A  245  HIS A  256  1                                  12    
  17 AB8 THR A  279  SER A  286  1                                   8    
  18 AB9 SER A  288  LYS A  294  1                                   7    
  19 AC1 PRO A  327  GLU A  329  5                                   3    
  20 AC2 PRO A  342  ILE A  357  1                                  16    
  21 AC3 PRO B    3  PHE B   16  1                                  14    
  22 AC4 PHE B   16  ASP B   24  1                                   9    
  23 AC5 VAL B   65  LYS B   80  1                                  16    
  24 AC6 THR B   88  TYR B   92  5                                   5    
  25 AC7 TRP B   93  LYS B   97  5                                   5    
  26 AC8 THR B   99  VAL B  104  5                                   6    
  27 AC9 ASN B  105  THR B  111  1                                   7    
  28 AD1 THR B  127  TRP B  138  1                                  12    
  29 AD2 SER B  151  MET B  166  1                                  16    
  30 AD3 PRO B  169  THR B  177  1                                   9    
  31 AD4 THR B  177  LEU B  182  1                                   6    
  32 AD5 PRO B  192  TYR B  199  5                                   8    
  33 AD6 LEU B  217  GLY B  223  1                                   7    
  34 AD7 THR B  227  ASN B  240  1                                  14    
  35 AD8 PRO B  241  TYR B  244  5                                   4    
  36 AD9 PRO B  245  HIS B  256  1                                  12    
  37 AE1 THR B  279  SER B  286  1                                   8    
  38 AE2 SER B  288  LYS B  294  1                                   7    
  39 AE3 PRO B  327  GLU B  329  5                                   3    
  40 AE4 PRO B  342  ILE B  357  1                                  16    
  41 AE5 LYS C    4  PHE C   16  1                                  13    
  42 AE6 LYS C   17  ASP C   24  1                                   8    
  43 AE7 VAL C   65  LYS C   80  1                                  16    
  44 AE8 THR C   88  TYR C   92  5                                   5    
  45 AE9 TRP C   93  LYS C   97  5                                   5    
  46 AF1 THR C   99  VAL C  104  5                                   6    
  47 AF2 ASN C  105  THR C  111  1                                   7    
  48 AF3 THR C  127  ASP C  137  1                                  11    
  49 AF4 SER C  151  MET C  166  1                                  16    
  50 AF5 PRO C  169  THR C  177  1                                   9    
  51 AF6 THR C  177  GLY C  183  1                                   7    
  52 AF7 PRO C  192  TYR C  199  5                                   8    
  53 AF8 LEU C  217  GLY C  223  1                                   7    
  54 AF9 LEU C  228  ASN C  240  1                                  13    
  55 AG1 PRO C  241  TYR C  244  5                                   4    
  56 AG2 PRO C  245  HIS C  256  1                                  12    
  57 AG3 THR C  279  ASN C  287  1                                   9    
  58 AG4 SER C  288  LYS C  294  1                                   7    
  59 AG5 PRO C  342  ILE C  357  1                                  16    
  60 AG6 GLN D    6  PHE D   16  1                                  11    
  61 AG7 PHE D   16  ASP D   24  1                                   9    
  62 AG8 VAL D   65  LYS D   80  1                                  16    
  63 AG9 THR D   88  TYR D   92  5                                   5    
  64 AH1 TRP D   93  LYS D   97  5                                   5    
  65 AH2 THR D   99  VAL D  104  5                                   6    
  66 AH3 ASN D  105  THR D  111  1                                   7    
  67 AH4 THR D  127  ASP D  137  1                                  11    
  68 AH5 SER D  151  MET D  166  1                                  16    
  69 AH6 PRO D  169  THR D  177  1                                   9    
  70 AH7 THR D  177  LEU D  182  1                                   6    
  71 AH8 PRO D  192  TYR D  199  5                                   8    
  72 AH9 LEU D  217  GLY D  223  1                                   7    
  73 AI1 THR D  227  ASN D  240  1                                  14    
  74 AI2 PRO D  241  TYR D  244  5                                   4    
  75 AI3 PRO D  245  THR D  255  1                                  11    
  76 AI4 THR D  279  SER D  286  1                                   8    
  77 AI5 SER D  288  LYS D  294  1                                   7    
  78 AI6 PRO D  342  ILE D  357  1                                  16    

>  <SHEET>
   1 AA1 9 LYS A  52  ALA A  53  0                                        
   2 AA1 9 LYS A  37  SER A  47 -1  N  GLN A  46   O  LYS A  52           
   3 AA1 9 GLY A  27  GLN A  34 -1  N  VAL A  30   O  MET A  41           
   4 AA1 9 ILE A 331  THR A 337 -1  O  LEU A 336   N  ALA A  29           
   5 AA1 9 GLY A 320  ILE A 326 -1  N  TYR A 322   O  MET A 335           
   6 AA1 9 LYS A 308  SER A 315 -1  N  GLY A 314   O  THR A 321           
   7 AA1 9 GLU A 272  SER A 275 -1  N  PHE A 274   O  MET A 309           
   8 AA1 9 MET A 265  GLN A 267 -1  N  TYR A 266   O  GLU A 273           
   9 AA1 9 TYR A 260  VAL A 262 -1  N  VAL A 262   O  MET A 265           
   1 AA2 2 PHE A  60  GLU A  61  0                                        
   2 AA2 2 LYS A 225  SER A 226 -1  O  SER A 226   N  PHE A  60           
   1 AA3 2 TYR A 147  ARG A 148  0                                        
   2 AA3 2 ASN A 296  LYS A 297 -1  O  ASN A 296   N  ARG A 148           
   1 AA4 2 GLY A 202  TYR A 203  0                                        
   2 AA4 2 PRO A 209  ILE A 210 -1  O  ILE A 210   N  GLY A 202           
   1 AA5 9 LYS B  52  ALA B  53  0                                        
   2 AA5 9 LYS B  37  SER B  47 -1  N  GLN B  46   O  LYS B  52           
   3 AA5 9 GLY B  27  GLN B  34 -1  N  VAL B  30   O  MET B  41           
   4 AA5 9 ILE B 331  THR B 337 -1  O  VAL B 334   N  GLY B  31           
   5 AA5 9 PHE B 319  ILE B 326 -1  N  ILE B 326   O  ILE B 331           
   6 AA5 9 LYS B 308  THR B 316 -1  N  GLY B 314   O  THR B 321           
   7 AA5 9 GLU B 272  SER B 275 -1  N  PHE B 274   O  MET B 309           
   8 AA5 9 MET B 265  GLN B 267 -1  N  TYR B 266   O  GLU B 273           
   9 AA5 9 TYR B 260  VAL B 262 -1  N  TYR B 260   O  GLN B 267           
   1 AA6 2 PHE B  60  GLU B  61  0                                        
   2 AA6 2 LYS B 225  SER B 226 -1  O  SER B 226   N  PHE B  60           
   1 AA7 2 TYR B 147  ARG B 148  0                                        
   2 AA7 2 ASN B 296  LYS B 297 -1  O  ASN B 296   N  ARG B 148           
   1 AA8 2 GLY B 202  TYR B 203  0                                        
   2 AA8 2 PRO B 209  ILE B 210 -1  O  ILE B 210   N  GLY B 202           
   1 AA9 9 LYS C  52  ALA C  53  0                                        
   2 AA9 9 LYS C  37  SER C  47 -1  N  GLN C  46   O  LYS C  52           
   3 AA9 9 GLY C  27  GLN C  34 -1  N  VAL C  30   O  MET C  41           
   4 AA9 9 ILE C 331  THR C 337 -1  O  VAL C 334   N  GLY C  31           
   5 AA9 9 PHE C 319  ILE C 326 -1  N  GLY C 320   O  THR C 337           
   6 AA9 9 LYS C 308  THR C 316 -1  N  LYS C 312   O  VAL C 323           
   7 AA9 9 GLU C 272  SER C 275 -1  N  PHE C 274   O  MET C 309           
   8 AA9 9 MET C 265  GLN C 267 -1  N  TYR C 266   O  GLU C 273           
   9 AA9 9 TYR C 260  VAL C 262 -1  N  VAL C 262   O  MET C 265           
   1 AB1 2 ILE C  59  GLU C  61  0                                        
   2 AB1 2 LYS C 225  THR C 227 -1  O  SER C 226   N  PHE C  60           
   1 AB2 2 TYR C 147  ARG C 148  0                                        
   2 AB2 2 ASN C 296  LYS C 297 -1  O  ASN C 296   N  ARG C 148           
   1 AB3 2 GLY C 202  TYR C 203  0                                        
   2 AB3 2 PRO C 209  ILE C 210 -1  O  ILE C 210   N  GLY C 202           
   1 AB4 9 LYS D  52  ALA D  53  0                                        
   2 AB4 9 LYS D  37  SER D  47 -1  N  SER D  47   O  LYS D  52           
   3 AB4 9 GLY D  27  GLN D  34 -1  N  VAL D  32   O  TYR D  39           
   4 AB4 9 ILE D 331  THR D 337 -1  O  LEU D 336   N  ALA D  29           
   5 AB4 9 GLY D 320  ILE D 326 -1  N  GLY D 320   O  THR D 337           
   6 AB4 9 LYS D 308  SER D 315 -1  N  GLY D 314   O  THR D 321           
   7 AB4 9 GLU D 272  SER D 275 -1  N  GLU D 272   O  HIS D 311           
   8 AB4 9 MET D 265  GLN D 267 -1  N  TYR D 266   O  GLU D 273           
   9 AB4 9 TYR D 260  VAL D 262 -1  N  VAL D 262   O  MET D 265           
   1 AB5 2 PHE D  60  GLU D  61  0                                        
   2 AB5 2 LYS D 225  SER D 226 -1  O  SER D 226   N  PHE D  60           
   1 AB6 2 TYR D 147  ARG D 148  0                                        
   2 AB6 2 ASN D 296  LYS D 297 -1  O  ASN D 296   N  ARG D 148           
   1 AB7 2 GLY D 202  TYR D 203  0                                        
   2 AB7 2 PRO D 209  ILE D 210 -1  O  ILE D 210   N  GLY D 202           

>  <LINK>
       OG  SER A  64                 B22 A1J A 401     1555   1555  1.50  
       OG  SER B  64                 B22 A1J B 401     1555   1555  1.50  
       OG  SER C  64                 B22 A1J C 401     1555   1555  1.52  
       OG  SER D  64                 B22 A1J D 401     1555   1555  1.49  

>  <CISPEP>
   1 TYR A  276    PRO A  277          0         1.22                     
   2 TYR B  276    PRO B  277          0         4.37                     
   3 TYR C  276    PRO C  277          0         1.42                     
   4 TYR D  276    PRO D  277          0         0.48                     

>  <SITE>
   1 AC1 17 SER A  64  GLN A 120  TYR A 150  ASN A 152                    
   2 AC1 17 VAL A 212  ASN A 213  TYR A 222  LYS A 312                    
   3 AC1 17 THR A 313  GLY A 314  SER A 315  THR A 316                    
   4 AC1 17 SER A 317  HOH A 514  HOH A 528  HOH A 550                    
   5 AC1 17 HOH A 566                                                     
   1 AC2 23 LEU B  62  GLY B  63  VAL B  65  SER B  66                    
   2 AC2 23 LYS B  67  GLN B 120  TYR B 150  ASN B 152                    
   3 AC2 23 VAL B 212  ASN B 213  ALA B 221  TYR B 222                    
   4 AC2 23 LYS B 312  THR B 313  GLY B 314  SER B 315                    
   5 AC2 23 THR B 316  SER B 317  HOH B 505  HOH B 547                    
   6 AC2 23 HOH B 562  HOH B 617  HOH B 689                               
   1 AC3 21 LEU C  62  GLY C  63  VAL C  65  SER C  66                    
   2 AC3 21 LYS C  67  GLN C 120  TYR C 150  ASN C 152                    
   3 AC3 21 ASN C 213  ALA C 221  TYR C 222  LYS C 312                    
   4 AC3 21 THR C 313  GLY C 314  SER C 315  THR C 316                    
   5 AC3 21 SER C 317  HOH C 503  HOH C 515  HOH C 534                    
   6 AC3 21 HOH C 548                                                     
   1 AC4 19 LEU D  62  GLY D  63  VAL D  65  SER D  66                    
   2 AC4 19 LYS D  67  GLN D 120  TYR D 150  ASN D 152                    
   3 AC4 19 VAL D 212  ASN D 213  TYR D 222  LYS D 312                    
   4 AC4 19 THR D 313  GLY D 314  SER D 315  THR D 316                    
   5 AC4 19 SER D 317  HOH D 501  HOH D 511                               

>  <ORIGX1>
      1.000000  0.000000  0.000000        0.00000                         

>  <ORIGX2>
      0.000000  1.000000  0.000000        0.00000                         

>  <ORIGX3>
      0.000000  0.000000  1.000000        0.00000                         

>  <SCALE1>
      0.011263  0.000000  0.004884        0.00000                         

>  <SCALE2>
      0.000000  0.012339  0.000000        0.00000                         

>  <SCALE3>
      0.000000  0.000000  0.010375        0.00000                         

>  <MASTER>
      447    0    4   78   60    0   22    611774    4   92  112          

$$$$
