start_structures/Ligand_Substrate/Ligand_Complex_Stripped/AP3_1BUL.pdb
 OpenBabel08222315203D

 23 23  0  0  1  0  0  0  0  0999 V2000
   23.7470   18.1520    9.9920 N   0  0  0  0  0  0  0  0  0  0  0  0
   22.9430   18.5300   11.1610 C   0  0  2  0  0  0  0  0  0  0  0  0
   23.1130   17.6220   12.3890 C   0  0  0  0  0  0  0  0  0  0  0  0
   22.6170   17.9540   13.4690 O   0  0  0  0  0  0  0  0  0  0  0  0
   21.4480   18.5810   10.8100 C   0  0  0  0  0  0  0  0  0  0  0  0
   21.0840   19.5410    9.8270 O   0  0  0  0  0  0  0  0  0  0  0  0
   20.9020   19.0710    8.5050 C   0  0  0  0  0  0  0  0  0  0  0  0
   21.5950   18.1820    7.9990 O   0  0  0  0  0  0  0  0  0  0  0  0
   19.7400   19.7420    7.7250 C   0  0  2  0  0  0  0  0  0  0  0  0
   19.9570   21.2790    7.4910 C   0  0  0  0  0  0  0  0  0  0  0  0
   20.3460   21.9180    8.7140 O   0  0  0  0  0  0  0  0  0  0  0  0
   18.3950   19.4400    8.4450 C   0  0  1  0  0  0  0  0  0  0  0  0
   16.9580   19.4710    7.2710 S   0  0  0  0  0  0  0  0  0  0  0  0
   16.7380   17.6300    7.3760 C   0  0  0  0  0  0  0  0  0  0  0  0
   16.5050   17.0810    5.9330 C   0  0  0  0  0  0  0  0  0  0  0  0
   15.4600   17.3330    8.2450 C   0  0  0  0  0  0  0  0  0  0  0  0
   18.0830   17.1190    8.0230 C   0  0  2  0  0  0  0  0  0  0  0  0
   17.9660   15.7520    8.6860 C   0  0  0  0  0  0  0  0  0  0  0  0
   18.0650   15.7260    9.9310 O   0  0  0  0  0  0  0  0  0  0  0  0
   17.8540   14.7360    7.9590 O   0  0  0  0  0  0  0  0  0  0  0  0
   18.4410   18.1110    9.0320 N   0  0  0  0  0  0  0  0  0  0  0  0
   18.6720   21.9370    6.9870 C   0  0  0  0  0  0  0  0  0  0  0  0
   21.0580   21.4920    6.4610 C   0  0  0  0  0  0  0  0  0  0  0  0
  2  1  1  6  0  0  0
  2  3  1  0  0  0  0
  3  4  2  0  0  0  0
  5  2  1  0  0  0  0
  6  7  1  0  0  0  0
  6  5  1  0  0  0  0
  7  8  2  0  0  0  0
  9  7  1  1  0  0  0
  9 10  1  0  0  0  0
 10 11  1  0  0  0  0
 10 22  1  0  0  0  0
 10 23  1  0  0  0  0
 12  9  1  6  0  0  0
 12 13  1  0  0  0  0
 12 21  1  0  0  0  0
 13 14  1  0  0  0  0
 14 15  1  0  0  0  0
 14 16  1  0  0  0  0
 14 17  1  0  0  0  0
 17 18  1  1  0  0  0
 17 21  1  0  0  0  0
 18 19  2  0  0  0  0
 18 20  1  0  0  0  0
M  END
>  <HEADER>
    HYDROLASE                               04-SEP-98   1BUL              

>  <TITLE>
    6ALPHA-(HYDROXYPROPYL)PENICILLANATE ACYLATED ON NMC-A BETA-           
   2 LACTAMASE FROM ENTEROBACTER CLOACAE                                  

>  <COMPND>
    MOL_ID: 1;                                                            
   2 MOLECULE: NMC-A BETA-LACTAMASE;                                      
   3 CHAIN: A;                                                            
   4 EC: 3.5.2.6;                                                         
   5 OTHER_DETAILS: ACYL-ENZYME COMPLEX                                   

>  <SOURCE>
    MOL_ID: 1;                                                            
   2 ORGANISM_SCIENTIFIC: ENTEROBACTER CLOACAE;                           
   3 ORGANISM_TAXID: 550;                                                 
   4 STRAIN: NOR-1                                                        

>  <KEYWDS>
    HYDROLASE, ANTIBIOTIC RESISTANCE, CLASS A CARBAPENEMASE               

>  <EXPDTA>
    X-RAY DIFFRACTION                                                     

>  <AUTHOR>
    L.MOUREY,P.SWAREN,K.MIYASHITA,A.BULYCHEV,S.MOBASHERY,                 
   2 J.P.SAMAMA                                                           

>  <REVDAT>
   3   24-FEB-09 1BUL    1       VERSN                                    
   2   15-JUN-99 1BUL    3       HET    REMARK TITLE  HETATM              
   2 2                   3       SCALE  LINK   AUTHOR FORMUL              
   2 3                   3       JRNL   HETSYN CONECT HETNAM              
   1   30-DEC-98 1BUL    0                                                

>  <JRNL>
      AUTH   L.MOUREY,P.SWAREN,K.MIYASHITA,A.BULYCHEV,                    
      AUTH 2 S.MOBASHERY,J.P.SAMAMA                                       
      TITL   INHIBITION OF THE NMC-A B-LACTAMASE BY A                     
      TITL 2 PENICILLANIC ACID DERIVATIVE, AND THE STRUCTURAL             
      TITL 3 BASES FOR THE INCREASE IN SUBSTRATE PROFILE OF               
      TITL 4 THIS ANTIBIOTIC RESISTANCE ENZYME                            
      REF    J.AM.CHEM.SOC.                V. 120  9382 1998              
      REFN                   ISSN 0002-7863                               

>  <REMARK>
   1                                                                      
   2                                                                      
   2 RESOLUTION.    1.89 ANGSTROMS.                                       
   3                                                                      
   3 REFINEMENT.                                                          
   3   PROGRAM     : X-PLOR 3.1                                           
   3   AUTHORS     : BRUNGER                                              
   3                                                                      
   3  DATA USED IN REFINEMENT.                                            
   3   RESOLUTION RANGE HIGH (ANGSTROMS) : 1.89                           
   3   RESOLUTION RANGE LOW  (ANGSTROMS) : 18.60                          
   3   DATA CUTOFF            (SIGMA(F)) : 0.000                          
   3   DATA CUTOFF HIGH         (ABS(F)) : 100000.000                     
   3   DATA CUTOFF LOW          (ABS(F)) : 0.1000                         
   3   COMPLETENESS (WORKING+TEST)   (%) : 98.2                           
   3   NUMBER OF REFLECTIONS             : 22005                          
   3                                                                      
   3  FIT TO DATA USED IN REFINEMENT.                                     
   3   CROSS-VALIDATION METHOD          : THROUGHOUT                      
   3   FREE R VALUE TEST SET SELECTION  : RANDOM                          
   3   R VALUE            (WORKING SET) : 0.209                           
   3   FREE R VALUE                     : 0.257                           
   3   FREE R VALUE TEST SET SIZE   (%) : 7.300                           
   3   FREE R VALUE TEST SET COUNT      : 1625                            
   3   ESTIMATED ERROR OF FREE R VALUE  : 0.006                           
   3                                                                      
   3  FIT IN THE HIGHEST RESOLUTION BIN.                                  
   3   TOTAL NUMBER OF BINS USED           : 8                            
   3   BIN RESOLUTION RANGE HIGH       (A) : 1.89                         
   3   BIN RESOLUTION RANGE LOW        (A) : 1.98                         
   3   BIN COMPLETENESS (WORKING+TEST) (%) : 95.70                        
   3   REFLECTIONS IN BIN    (WORKING SET) : 2458                         
   3   BIN R VALUE           (WORKING SET) : 0.3170                       
   3   BIN FREE R VALUE                    : 0.3700                       
   3   BIN FREE R VALUE TEST SET SIZE  (%) : 6.60                         
   3   BIN FREE R VALUE TEST SET COUNT     : 182                          
   3   ESTIMATED ERROR OF BIN FREE R VALUE : 0.027                        
   3                                                                      
   3  NUMBER OF NON-HYDROGEN ATOMS USED IN REFINEMENT.                    
   3   PROTEIN ATOMS            : 2048                                    
   3   NUCLEIC ACID ATOMS       : NULL                                    
   3   HETEROGEN ATOMS          : 53                                      
   3   SOLVENT ATOMS            : 191                                     
   3                                                                      
   3  B VALUES.                                                           
   3   FROM WILSON PLOT           (A**2) : 8.00                           
   3   MEAN B VALUE      (OVERALL, A**2) : 13.10                          
   3   OVERALL ANISOTROPIC B VALUE.                                       
   3    B11 (A**2) : NULL                                                 
   3    B22 (A**2) : NULL                                                 
   3    B33 (A**2) : NULL                                                 
   3    B12 (A**2) : NULL                                                 
   3    B13 (A**2) : NULL                                                 
   3    B23 (A**2) : NULL                                                 
   3                                                                      
   3  ESTIMATED COORDINATE ERROR.                                         
   3   ESD FROM LUZZATI PLOT        (A) : NULL                            
   3   ESD FROM SIGMAA              (A) : 0.21                            
   3   LOW RESOLUTION CUTOFF        (A) : 18.60                           
   3                                                                      
   3  CROSS-VALIDATED ESTIMATED COORDINATE ERROR.                         
   3   ESD FROM C-V LUZZATI PLOT    (A) : NULL                            
   3   ESD FROM C-V SIGMAA          (A) : NULL                            
   3                                                                      
   3  RMS DEVIATIONS FROM IDEAL VALUES.                                   
   3   BOND LENGTHS                 (A) : 0.007                           
   3   BOND ANGLES            (DEGREES) : 1.40                            
   3   DIHEDRAL ANGLES        (DEGREES) : 23.30                           
   3   IMPROPER ANGLES        (DEGREES) : 1.20                            
   3                                                                      
   3  ISOTROPIC THERMAL MODEL : NULL                                      
   3                                                                      
   3  ISOTROPIC THERMAL FACTOR RESTRAINTS.    RMS    SIGMA                
   3   MAIN-CHAIN BOND              (A**2) : NULL  ; NULL                 
   3   MAIN-CHAIN ANGLE             (A**2) : NULL  ; NULL                 
   3   SIDE-CHAIN BOND              (A**2) : NULL  ; NULL                 
   3   SIDE-CHAIN ANGLE             (A**2) : NULL  ; NULL                 
   3                                                                      
   3  NCS MODEL : NULL                                                    
   3                                                                      
   3  NCS RESTRAINTS.                         RMS   SIGMA/WEIGHT          
   3   GROUP  1  POSITIONAL            (A) : NULL  ; NULL                 
   3   GROUP  1  B-FACTOR           (A**2) : NULL  ; NULL                 
   3                                                                      
   3  PARAMETER FILE  1  : PARHCSDX.PRO                                   
   3  PARAMETER FILE  2  : MES.PAR                                        
   3  PARAMETER FILE  3  : PROPYL.PAR                                     
   3  PARAMETER FILE  4  : NULL                                           
   3  TOPOLOGY FILE  1   : TOPHCSDX.PRO                                   
   3  TOPOLOGY FILE  2   : MES.TOP                                        
   3  TOPOLOGY FILE  3   : PROPYL.TOP                                     
   3  TOPOLOGY FILE  4   : NULL                                           
   3                                                                      
   3  OTHER REFINEMENT REMARKS: BULK SOLVENT CORRECTION USED WITH A       
   3  DENSITY OF 0.33 E-/A**3, SOLVENT RADIUS OF 0.25 ANGSTROMS AND       
   3  B VALUES OF 50 A**2.                                                
   4                                                                      
   4 1BUL COMPLIES WITH FORMAT V. 3.15, 01-DEC-08                         
 100                                                                      
 100 THIS ENTRY HAS BEEN PROCESSED BY BNL.                                
 200                                                                      
 200 EXPERIMENTAL DETAILS                                                 
 200  EXPERIMENT TYPE                : X-RAY DIFFRACTION                  
 200  DATE OF DATA COLLECTION        : 15-OCT-97                          
 200  TEMPERATURE           (KELVIN) : 120                                
 200  PH                             : 7.5                                
 200  NUMBER OF CRYSTALS USED        : 1                                  
 200                                                                      
 200  SYNCHROTRON              (Y/N) : Y                                  
 200  RADIATION SOURCE               : LURE                               
 200  BEAMLINE                       : DW32                               
 200  X-RAY GENERATOR MODEL          : NULL                               
 200  MONOCHROMATIC OR LAUE    (M/L) : M                                  
 200  WAVELENGTH OR RANGE        (A) : 0.970                              
 200  MONOCHROMATOR                  : NULL                               
 200  OPTICS                         : NULL                               
 200                                                                      
 200  DETECTOR TYPE                  : IMAGE PLATE                        
 200  DETECTOR MANUFACTURER          : MARRESEARCH                        
 200  INTENSITY-INTEGRATION SOFTWARE : MOSFLM                             
 200  DATA SCALING SOFTWARE          : CCP4 (AGROVATA, ROTAVATA)          
 200                                                                      
 200  NUMBER OF UNIQUE REFLECTIONS   : 22025                              
 200  RESOLUTION RANGE HIGH      (A) : 1.890                              
 200  RESOLUTION RANGE LOW       (A) : 18.600                             
 200  REJECTION CRITERIA  (SIGMA(I)) : NULL                               
 200                                                                      
 200 OVERALL.                                                             
 200  COMPLETENESS FOR RANGE     (%) : 98.6                               
 200  DATA REDUNDANCY                : 3.700                              
 200  R MERGE                    (I) : 0.04600                            
 200  R SYM                      (I) : NULL                               
 200  <I/SIGMA(I)> FOR THE DATA SET  : 9.0000                             
 200                                                                      
 200 IN THE HIGHEST RESOLUTION SHELL.                                     
 200  HIGHEST RESOLUTION SHELL, RANGE HIGH (A) : 1.89                     
 200  HIGHEST RESOLUTION SHELL, RANGE LOW  (A) : 1.96                     
 200  COMPLETENESS FOR SHELL     (%) : 95.0                               
 200  DATA REDUNDANCY IN SHELL       : 3.30                               
 200  R MERGE FOR SHELL          (I) : 0.09800                            
 200  R SYM FOR SHELL            (I) : NULL                               
 200  <I/SIGMA(I)> FOR SHELL         : 5.900                              
 200                                                                      
 200 DIFFRACTION PROTOCOL: NULL                                           
 200 METHOD USED TO DETERMINE THE STRUCTURE: MOLECULAR REPLACEMENT        
 200 SOFTWARE USED: AMORE                                                 
 200 STARTING MODEL: THE NMC-A BETA-LACTAMASE STRUCTURE                   
 200                                                                      
 200 REMARK: NULL                                                         
 280                                                                      
 280 CRYSTAL                                                              
 280 SOLVENT CONTENT, VS   (%): 47.20                                     
 280 MATTHEWS COEFFICIENT, VM (ANGSTROMS**3/DA): 2.35                     
 280                                                                      
 280 CRYSTALLIZATION CONDITIONS: 20% (W/V)PEG 1500, 0.200 M MES PH        
 280  5.25, 6% (V/V) N-PROPANOL, PH 7.5                                   
 290                                                                      
 290 CRYSTALLOGRAPHIC SYMMETRY                                            
 290 SYMMETRY OPERATORS FOR SPACE GROUP: P 21 21 2                        
 290                                                                      
 290      SYMOP   SYMMETRY                                                
 290     NNNMMM   OPERATOR                                                
 290       1555   X,Y,Z                                                   
 290       2555   -X,-Y,Z                                                 
 290       3555   -X+1/2,Y+1/2,-Z                                         
 290       4555   X+1/2,-Y+1/2,-Z                                         
 290                                                                      
 290     WHERE NNN -> OPERATOR NUMBER                                     
 290           MMM -> TRANSLATION VECTOR                                  
 290                                                                      
 290 CRYSTALLOGRAPHIC SYMMETRY TRANSFORMATIONS                            
 290 THE FOLLOWING TRANSFORMATIONS OPERATE ON THE ATOM/HETATM             
 290 RECORDS IN THIS ENTRY TO PRODUCE CRYSTALLOGRAPHICALLY                
 290 RELATED MOLECULES.                                                   
 290   SMTRY1   1  1.000000  0.000000  0.000000        0.00000            
 290   SMTRY2   1  0.000000  1.000000  0.000000        0.00000            
 290   SMTRY3   1  0.000000  0.000000  1.000000        0.00000            
 290   SMTRY1   2 -1.000000  0.000000  0.000000        0.00000            
 290   SMTRY2   2  0.000000 -1.000000  0.000000        0.00000            
 290   SMTRY3   2  0.000000  0.000000  1.000000        0.00000            
 290   SMTRY1   3 -1.000000  0.000000  0.000000       38.77500            
 290   SMTRY2   3  0.000000  1.000000  0.000000       26.23000            
 290   SMTRY3   3  0.000000  0.000000 -1.000000        0.00000            
 290   SMTRY1   4  1.000000  0.000000  0.000000       38.77500            
 290   SMTRY2   4  0.000000 -1.000000  0.000000       26.23000            
 290   SMTRY3   4  0.000000  0.000000 -1.000000        0.00000            
 290                                                                      
 290 REMARK: NULL                                                         
 300                                                                      
 300 BIOMOLECULE: 1                                                       
 300 SEE REMARK 350 FOR THE AUTHOR PROVIDED AND/OR PROGRAM                
 300 GENERATED ASSEMBLY INFORMATION FOR THE STRUCTURE IN                  
 300 THIS ENTRY. THE REMARK MAY ALSO PROVIDE INFORMATION ON               
 300 BURIED SURFACE AREA.                                                 
 350                                                                      
 350 COORDINATES FOR A COMPLETE MULTIMER REPRESENTING THE KNOWN           
 350 BIOLOGICALLY SIGNIFICANT OLIGOMERIZATION STATE OF THE                
 350 MOLECULE CAN BE GENERATED BY APPLYING BIOMT TRANSFORMATIONS          
 350 GIVEN BELOW.  BOTH NON-CRYSTALLOGRAPHIC AND                          
 350 CRYSTALLOGRAPHIC OPERATIONS ARE GIVEN.                               
 350                                                                      
 350 BIOMOLECULE: 1                                                       
 350 AUTHOR DETERMINED BIOLOGICAL UNIT: MONOMERIC                         
 350 SOFTWARE DETERMINED QUATERNARY STRUCTURE: MONOMERIC                  
 350 SOFTWARE USED: PISA                                                  
 350 APPLY THE FOLLOWING TO CHAINS: A                                     
 350   BIOMT1   1  1.000000  0.000000  0.000000        0.00000            
 350   BIOMT2   1  0.000000  1.000000  0.000000        0.00000            
 350   BIOMT3   1  0.000000  0.000000  1.000000        0.00000            
 400                                                                      
 400 COMPOUND                                                             
 400                                                                      
 400 THE STRUCTURE DEPOSITED IS AN ACYL-ENZYME COMPLEX BETWEEN            
 400 6 ALPHA-(HYDROXYPROPYL)PENICILLANIC ACID AND THE NMC-A               
 400 BETA-LACTAMASE FROM ENTEROBACTER CLOACAE NOR-1.  THE                 
 400 ACYLATED RESIDUE IS SER 70.                                          
 470                                                                      
 470 MISSING ATOM                                                         
 470 THE FOLLOWING RESIDUES HAVE MISSING ATOMS(M=MODEL NUMBER;            
 470 RES=RESIDUE NAME; C=CHAIN IDENTIFIER; SSEQ=SEQUENCE NUMBER;          
 470 I=INSERTION CODE):                                                   
 470   M RES CSSEQI  ATOMS                                                
 470     LYS A 253    CE   NZ                                             
 470     LYS A 273    CG   CD   CE   NZ                                   
 500                                                                      
 500 GEOMETRY AND STEREOCHEMISTRY                                         
 500 SUBTOPIC: COVALENT BOND LENGTHS                                      
 500                                                                      
 500 THE STEREOCHEMICAL PARAMETERS OF THE FOLLOWING RESIDUES              
 500 HAVE VALUES WHICH DEVIATE FROM EXPECTED VALUES BY MORE               
 500 THAN 6*RMSD (M=MODEL NUMBER; RES=RESIDUE NAME; C=CHAIN               
 500 IDENTIFIER; SSEQ=SEQUENCE NUMBER; I=INSERTION CODE).                 
 500                                                                      
 500 STANDARD TABLE:                                                      
 500 FORMAT: (10X,I3,1X,2(A3,1X,A1,I4,A1,1X,A4,3X),1X,F6.3)               
 500                                                                      
 500 EXPECTED VALUES PROTEIN: ENGH AND HUBER, 1999                        
 500 EXPECTED VALUES NUCLEIC ACID: CLOWNEY ET AL 1996                     
 500                                                                      
 500  M RES CSSEQI ATM1   RES CSSEQI ATM2   DEVIATION                     
 500    GLU A 269   C     LYS A 270   N      -0.145                       
 500                                                                      
 500 REMARK: NULL                                                         
 500                                                                      
 500 GEOMETRY AND STEREOCHEMISTRY                                         
 500 SUBTOPIC: TORSION ANGLES                                             
 500                                                                      
 500 TORSION ANGLES OUTSIDE THE EXPECTED RAMACHANDRAN REGIONS:            
 500 (M=MODEL NUMBER; RES=RESIDUE NAME; C=CHAIN IDENTIFIER;               
 500 SSEQ=SEQUENCE NUMBER; I=INSERTION CODE).                             
 500                                                                      
 500 STANDARD TABLE:                                                      
 500 FORMAT:(10X,I3,1X,A3,1X,A1,I4,A1,4X,F7.2,3X,F7.2)                    
 500                                                                      
 500 EXPECTED VALUES: GJ KLEYWEGT AND TA JONES (1996). PHI/PSI-           
 500 CHOLOGY: RAMACHANDRAN REVISITED. STRUCTURE 4, 1395 - 1400            
 500                                                                      
 500  M RES CSSEQI        PSI       PHI                                   
 500    LYS A  28      128.73    -38.97                                   
 500    CYS A  69     -145.20     57.97                                   
 500    TYR A  97       28.34   -151.67                                   
 500    HIS A 105       72.93     66.57                                   
 500    ARG A 220     -121.61   -104.01                                   
 500                                                                      
 500 REMARK: NULL                                                         
 800                                                                      
 800 SITE                                                                 
 800 SITE_IDENTIFIER: AC1                                                 
 800 EVIDENCE_CODE: SOFTWARE                                              
 800 SITE_DESCRIPTION: BINDING SITE FOR RESIDUE AP3 A 292                 
 800 SITE_IDENTIFIER: AC2                                                 
 800 EVIDENCE_CODE: SOFTWARE                                              
 800 SITE_DESCRIPTION: BINDING SITE FOR RESIDUE MES A 301                 
 800 SITE_IDENTIFIER: AC3                                                 
 800 EVIDENCE_CODE: SOFTWARE                                              
 800 SITE_DESCRIPTION: BINDING SITE FOR RESIDUE MES A 302                 
 800 SITE_IDENTIFIER: AC4                                                 
 800 EVIDENCE_CODE: SOFTWARE                                              
 800 SITE_DESCRIPTION: BINDING SITE FOR RESIDUE MES A 303                 

>  <DBREF>
 1BUL A   26   291  UNP    P52663   BLAN_ENTCL      28    292             

>  <SEQRES>
   1 A  265  ASN THR LYS GLY ILE ASP GLU ILE LYS ASN LEU GLU THR          
   2 A  265  ASP PHE ASN GLY ARG ILE GLY VAL TYR ALA LEU ASP THR          
   3 A  265  GLY SER GLY LYS SER PHE SER TYR ARG ALA ASN GLU ARG          
   4 A  265  PHE PRO LEU CYS SER SER PHE LYS GLY PHE LEU ALA ALA          
   5 A  265  ALA VAL LEU LYS GLY SER GLN ASP ASN ARG LEU ASN LEU          
   6 A  265  ASN GLN ILE VAL ASN TYR ASN THR ARG SER LEU GLU PHE          
   7 A  265  HIS SER PRO ILE THR THR LYS TYR LYS ASP ASN GLY MET          
   8 A  265  SER LEU GLY ASP MET ALA ALA ALA ALA LEU GLN TYR SER          
   9 A  265  ASP ASN GLY ALA THR ASN ILE ILE LEU GLU ARG TYR ILE          
  10 A  265  GLY GLY PRO GLU GLY MET THR LYS PHE MET ARG SER ILE          
  11 A  265  GLY ASP GLU ASP PHE ARG LEU ASP ARG TRP GLU LEU ASP          
  12 A  265  LEU ASN THR ALA ILE PRO GLY ASP GLU ARG ASP THR SER          
  13 A  265  THR PRO ALA ALA VAL ALA LYS SER LEU LYS THR LEU ALA          
  14 A  265  LEU GLY ASN ILE LEU SER GLU HIS GLU LYS GLU THR TYR          
  15 A  265  GLN THR TRP LEU LYS GLY ASN THR THR GLY ALA ALA ARG          
  16 A  265  ILE ARG ALA SER VAL PRO SER ASP TRP VAL VAL GLY ASP          
  17 A  265  LYS THR GLY SER CYS GLY ALA TYR GLY THR ALA ASN ASP          
  18 A  265  TYR ALA VAL VAL TRP PRO LYS ASN ARG ALA PRO LEU ILE          
  19 A  265  ILE SER VAL TYR THR THR LYS ASN GLU LYS GLU ALA LYS          
  20 A  265  HIS GLU ASP LYS VAL ILE ALA GLU ALA SER ARG ILE ALA          
  21 A  265  ILE ASP ASN LEU LYS                                          

>  <HET>
 AP3  A 292      17                                                       
 MES  A 301      12                                                       
 MES  A 302      12                                                       
 MES  A 303      12                                                       

>  <HETNAM>
     AP3 2-(1-CARBOXY-2-HYDROXY-2-METHYL-PROPYL)-5,5-DIMETHYL-            
   2 AP3  THIAZOLIDINE-4-CARBOXYLIC ACID                                  
     MES 2-(N-MORPHOLINO)-ETHANESULFONIC ACID                             

>  <FORMUL>
   2  AP3    C11 H19 N O5 S                                               
   3  MES    3(C6 H13 N O4 S)                                             
   6  HOH   *191(H2 O)                                                    

>  <HELIX>
   1   1 ILE A   30  PHE A   40  1                                  11    
   2   2 CYS A   69  GLN A   85  5                                  17    
   3   3 PRO A  107  LYS A  111  1                                   5    
   4   4 LEU A  119  GLN A  128  1                                  10    
   5   5 ASN A  132  ARG A  140A 1                                  10    
   6   6 GLY A  144  ILE A  155  1                                  12    
   7   7 ASP A  168  ASN A  170  5                                   3    
   8   8 PRO A  183  LEU A  195  1                                  13    
   9   9 GLU A  201  LYS A  212  1                                  12    
  10  10 ILE A  221  SER A  224  5                                   4    
  11  11 ASP A  276  ASN A  289  1                                  14    

>  <SHEET>
   1   A 5 SER A  56  TYR A  60  0                                        
   2   A 5 ARG A  43  ASP A  50 -1  N  ALA A  48   O  PHE A  57           
   3   A 5 PRO A 258  THR A 266 -1  N  THR A 266   O  ARG A  43           
   4   A 5 ALA A 244  TRP A 251 -1  N  VAL A 250   O  LEU A 259           
   5   A 5 VAL A 230  SER A 237 -1  N  GLY A 236   O  ASN A 245           
   1   B 2 ARG A  65  PRO A  67  0                                        
   2   B 2 THR A 180  THR A 182 -1  N  SER A 181   O  PHE A  66           

>  <SSBOND>
   1 CYS A   69    CYS A  238                          1555   1555  2.04  

>  <LINK>
       C1  AP3 A 292                 OG  SER A  70     1555   1555  1.42  

>  <CISPEP>
   1 GLU A  166    LEU A  167          0         0.35                     

>  <SITE>
   1 AC1 11 SER A  70  LYS A  73  SER A 130  ASN A 132                    
   2 AC1 11 GLU A 166  ASN A 170  THR A 216  THR A 235                    
   3 AC1 11 SER A 237  HOH A 430  HOH A 471                               
   1 AC2  7 THR A  99  ARG A 100  SER A 101  SER A 224                    
   2 AC2  7 TRP A 229  ILE A 287  ASP A 288                               
   1 AC3  7 ASN A  26  THR A  27  LYS A  28  ARG A  65                    
   2 AC3  7 GLU A 177  LYS A 291  MES A 303                               
   1 AC4  6 LYS A  28  ARG A 100  ASN A 136  GLU A 140                    
   2 AC4  6 TRP A 165  MES A 302                                          

>  <ORIGX1>
      1.000000  0.000000  0.000000        0.00000                         

>  <ORIGX2>
      0.000000  1.000000  0.000000        0.00000                         

>  <ORIGX3>
      0.000000  0.000000  1.000000        0.00000                         

>  <SCALE1>
      0.012895  0.000000  0.000000        0.00000                         

>  <SCALE2>
      0.000000  0.019062  0.000000        0.00000                         

>  <SCALE3>
      0.000000  0.000000  0.014877        0.00000                         

>  <MASTER>
      279    0    4   11    7    0    9    6 2292    1   56   21          

$$$$
