start_structures/Ligand_Substrate/Ligand_Complex_Stripped/AZR_2ZQC.pdb
 OpenBabel08222315203D

 39 45  0  0  1  0  0  0  0  0999 V2000
   37.6670  -15.7970    5.9340 N   0  0  0  0  0  0  0  0  0  0  0  0
   37.6830  -17.2490    5.9450 C   0  0  2  0  0  0  0  0  0  0  0  0
   36.4380  -17.8890    5.3240 C   0  0  0  0  0  0  0  0  0  0  0  0
   36.4100  -19.1150    5.1710 O   0  0  0  0  0  0  0  0  0  0  0  0
   37.8400  -17.7840    7.3480 C   0  0  0  0  0  0  0  0  0  0  0  0
   39.1180  -17.4470    7.9270 O   0  0  0  0  0  0  0  0  0  0  0  0
   40.5200  -18.1600   11.6190 C   0  0  0  0  0  0  0  0  0  0  0  0
   43.5710  -10.1590   10.5370 S   0  0  0  0  0  0  0  0  0  0  0  0
   38.3290  -15.4540    8.6260 O   0  0  0  0  0  0  0  0  0  0  0  0
   42.8410  -15.7580   10.4790 O   0  0  0  0  0  0  0  0  0  0  0  0
   41.1190  -14.7310   13.0350 O   0  0  0  0  0  0  0  0  0  0  0  0
   38.2900  -17.8030   10.6020 N   0  0  0  0  0  0  0  0  0  0  0  0
   40.6870  -15.1170   10.1460 N   0  0  0  0  0  0  0  0  0  0  0  0
   41.7790  -13.6190   12.6100 N   0  0  0  0  0  0  0  0  0  0  0  0
   43.6990  -12.6560    9.9130 N   0  0  0  0  0  0  0  0  0  0  0  0
   45.0830  -11.4750    8.7710 N   0  0  0  0  0  0  0  0  0  0  0  0
   36.9930  -17.7010   11.5860 S   0  0  0  0  0  0  0  0  0  0  0  0
   39.5490  -17.1520   11.0210 C   0  0  2  0  0  0  0  0  0  0  0  0
   40.1870  -16.4460    9.8010 C   0  0  1  0  0  0  0  0  0  0  0  0
   39.1310  -16.3730    8.7350 C   0  0  0  0  0  0  0  0  0  0  0  0
   41.9300  -14.9390   10.5870 C   0  0  0  0  0  0  0  0  0  0  0  0
   42.1560  -13.6450   11.3580 C   0  0  0  0  0  0  0  0  0  0  0  0
   40.8930  -14.8000   14.4340 C   0  0  0  0  0  0  0  0  0  0  0  0
   42.8100  -12.5310   10.8760 C   0  0  0  0  0  0  0  0  0  0  0  0
   42.6150  -11.2540   11.3290 C   0  0  0  0  0  0  0  0  0  0  0  0
   44.2080  -11.4670    9.6490 C   0  0  0  0  0  0  0  0  0  0  0  0
   39.6800  -15.6810   14.7180 C   0  0  2  0  0  0  0  0  0  0  0  0
   39.8740  -13.7420   14.8680 C   0  0  1  0  0  0  0  0  0  0  0  0
   42.1230  -15.4200   15.1000 C   0  0  2  0  0  0  0  0  0  0  0  0
   40.3580  -16.1820   14.8030 C   0  0  2  0  0  0  0  0  0  0  0  0
   40.6510  -13.3890   15.0280 C   0  0  1  0  0  0  0  0  0  0  0  0
   42.2420  -14.6100   15.1570 C   0  0  1  0  0  0  0  0  0  0  0  0
   41.1800  -13.1410   16.1330 O   0  0  0  0  0  0  0  0  0  0  0  0
   43.2120  -15.2720   14.7200 O   0  0  0  0  0  0  0  0  0  0  0  0
   39.9350  -12.5890   14.3750 O   0  0  0  0  0  0  0  0  0  0  0  0
   42.2810  -13.8190   16.1250 O   0  0  0  0  0  0  0  0  0  0  0  0
   36.0000  -18.5150   10.8920 O   0  0  0  0  0  0  0  0  0  0  0  0
   36.6380  -16.2930   11.6650 O   0  0  0  0  0  0  0  0  0  0  0  0
   37.3190  -18.2480   12.8880 O   0  0  0  0  0  0  0  0  0  0  0  0
  2  1  1  1  0  0  0
  2  5  1  0  0  0  0
  3  2  1  0  0  0  0
  4  3  2  0  0  0  0
  5  6  1  0  0  0  0
  6 20  1  0  0  0  0
  8 25  1  0  0  0  0
  8 26  1  0  0  0  0
  9 20  2  0  0  0  0
 10 21  2  0  0  0  0
 11 14  1  0  0  0  0
 11 23  1  0  0  0  0
 12 17  1  0  0  0  0
 12 18  1  0  0  0  0
 13 21  1  0  0  0  0
 14 22  2  0  0  0  0
 15 24  1  0  0  0  0
 15 26  2  0  0  0  0
 16 26  1  0  0  0  0
 17 37  1  0  0  0  0
 17 38  1  0  0  0  0
 17 39  1  0  0  0  0
 18  7  1  6  0  0  0
 18 19  1  0  0  0  0
 19 13  1  1  0  0  0
 19 20  1  0  0  0  0
 21 22  1  0  0  0  0
 22 24  1  0  0  0  0
 23 27  1  0  0  0  0
 23 28  1  0  0  0  0
 23 29  1  0  0  0  0
 23 30  1  0  0  0  0
 23 31  1  0  0  0  0
 23 32  1  0  0  0  0
 24 25  2  0  0  0  0
 27 30  1  0  0  0  0
 27 28  1  0  0  0  0
 28 31  1  0  0  0  0
 29 32  1  0  0  0  0
 30 29  1  0  0  0  0
 31 33  1  0  0  0  0
 31 35  1  0  0  0  0
 32 34  1  0  0  0  0
 32 36  1  0  0  0  0
 36 33  1  0  0  0  0
M  END
>  <HEADER>
    HYDROLASE                               07-AUG-08   2ZQC              

>  <TITLE>
    AZTREONAM ACYL-INTERMEDIATE STRUCTURE OF CLASS A BETA-LACTAM TOHO-1   
   2 E166A/R274N/R276N TRIPLE MUTANT                                      

>  <COMPND>
    MOL_ID: 1;                                                            
   2 MOLECULE: BETA-LACTAMASE TOHO-1;                                     
   3 CHAIN: A;                                                            
   4 EC: 3.5.2.6;                                                         
   5 ENGINEERED: YES;                                                     
   6 MUTATION: YES                                                        

>  <SOURCE>
    MOL_ID: 1;                                                            
   2 ORGANISM_SCIENTIFIC: ESCHERICHIA COLI;                               
   3 ORGANISM_TAXID: 562;                                                 
   4 GENE: BLA;                                                           
   5 EXPRESSION_SYSTEM: ESCHERICHIA COLI;                                 
   6 EXPRESSION_SYSTEM_TAXID: 562;                                        
   7 EXPRESSION_SYSTEM_VECTOR_TYPE: PLASMID;                              
   8 EXPRESSION_SYSTEM_PLASMID: PUC119                                    

>  <KEYWDS>
    EXTENDED-SPECTRUM, ESBL, BETA-LACTAMASE, ACYL-ENZYME COMPLEX,         
   2 AZTREONAM, TOHO-1, HYDROLASE, ANTIBIOTIC RESISTANCE                  

>  <EXPDTA>
    X-RAY DIFFRACTION                                                     

>  <AUTHOR>
    Y.NITANAI,T.SHIMAMURA,T.UCHIYAMA,Y.ISHII,M.TAKEHIRA,K.YUTANI,         
   2 H.MATSUZAWA,M.MIYANO                                                 

>  <REVDAT>
   3   10-NOV-21 2ZQC    1       REMARK SEQADV LINK                       
   2   31-AUG-11 2ZQC    1       CONECT FORMUL HETSYN VERSN               
   1   28-JUL-09 2ZQC    0                                                

>  <JRNL>
      AUTH   Y.NITANAI,T.SHIMAMURA,T.UCHIYAMA,Y.ISHII,M.TAKEHIRA,K.YUTAN, 
      AUTH 2 H.MATSUZAWA,M.MIYANO                                         
      TITL   STRUCTURAL BASIS OF EXTEND SPECTRUM BETA-LACTAMASE IN        
      TITL 2 CORRELATION OF ENZYMATIC KINETICS AND THERMAL STABILITY OF   
      TITL 3 ACYL-INTERMEDIATES                                           
      REF    TO BE PUBLISHED                                              
      REFN                                                                

>  <REMARK>
   2                                                                      
   2 RESOLUTION.    1.07 ANGSTROMS.                                       
   3                                                                      
   3 REFINEMENT.                                                          
   3   PROGRAM     : REFMAC 5.2.0019                                      
   3   AUTHORS     : MURSHUDOV,SKUBAK,LEBEDEV,PANNU,STEINER,              
   3               : NICHOLLS,WINN,LONG,VAGIN                             
   3                                                                      
   3    REFINEMENT TARGET : MAXIMUM LIKELIHOOD                            
   3                                                                      
   3  DATA USED IN REFINEMENT.                                            
   3   RESOLUTION RANGE HIGH (ANGSTROMS) : 1.07                           
   3   RESOLUTION RANGE LOW  (ANGSTROMS) : 50.00                          
   3   DATA CUTOFF            (SIGMA(F)) : NULL                           
   3   COMPLETENESS FOR RANGE        (%) : 99.9                           
   3   NUMBER OF REFLECTIONS             : 123290                         
   3                                                                      
   3  FIT TO DATA USED IN REFINEMENT.                                     
   3   CROSS-VALIDATION METHOD          : THROUGHOUT                      
   3   FREE R VALUE TEST SET SELECTION  : RANDOM                          
   3   R VALUE     (WORKING + TEST SET) : 0.134                           
   3   R VALUE            (WORKING SET) : 0.134                           
   3   FREE R VALUE                     : 0.146                           
   3   FREE R VALUE TEST SET SIZE   (%) : 5.000                           
   3   FREE R VALUE TEST SET COUNT      : 6539                            
   3                                                                      
   3  FIT IN THE HIGHEST RESOLUTION BIN.                                  
   3   TOTAL NUMBER OF BINS USED           : 20                           
   3   BIN RESOLUTION RANGE HIGH       (A) : 1.07                         
   3   BIN RESOLUTION RANGE LOW        (A) : 1.10                         
   3   REFLECTION IN BIN     (WORKING SET) : 8877                         
   3   BIN COMPLETENESS (WORKING+TEST) (%) : 98.22                        
   3   BIN R VALUE           (WORKING SET) : 0.1380                       
   3   BIN FREE R VALUE SET COUNT          : 494                          
   3   BIN FREE R VALUE                    : 0.1590                       
   3                                                                      
   3  NUMBER OF NON-HYDROGEN ATOMS USED IN REFINEMENT.                    
   3   PROTEIN ATOMS            : 1966                                    
   3   NUCLEIC ACID ATOMS       : 0                                       
   3   HETEROGEN ATOMS          : 48                                      
   3   SOLVENT ATOMS            : 410                                     
   3                                                                      
   3  B VALUES.                                                           
   3   FROM WILSON PLOT           (A**2) : NULL                           
   3   MEAN B VALUE      (OVERALL, A**2) : 9.94                           
   3   OVERALL ANISOTROPIC B VALUE.                                       
   3    B11 (A**2) : 0.02000                                              
   3    B22 (A**2) : 0.02000                                              
   3    B33 (A**2) : -0.03000                                             
   3    B12 (A**2) : 0.01000                                              
   3    B13 (A**2) : 0.00000                                              
   3    B23 (A**2) : 0.00000                                              
   3                                                                      
   3  ESTIMATED OVERALL COORDINATE ERROR.                                 
   3   ESU BASED ON R VALUE                            (A): 0.024         
   3   ESU BASED ON FREE R VALUE                       (A): 0.024         
   3   ESU BASED ON MAXIMUM LIKELIHOOD                 (A): 0.012         
   3   ESU FOR B VALUES BASED ON MAXIMUM LIKELIHOOD (A**2): 0.514         
   3                                                                      
   3 CORRELATION COEFFICIENTS.                                            
   3   CORRELATION COEFFICIENT FO-FC      : 0.970                         
   3   CORRELATION COEFFICIENT FO-FC FREE : 0.971                         
   3                                                                      
   3  RMS DEVIATIONS FROM IDEAL VALUES        COUNT    RMS    WEIGHT      
   3   BOND LENGTHS REFINED ATOMS        (A):  2311 ; 0.009 ; 0.022       
   3   BOND LENGTHS OTHERS               (A):  NULL ;  NULL ;  NULL       
   3   BOND ANGLES REFINED ATOMS   (DEGREES):  3168 ; 1.496 ; 1.989       
   3   BOND ANGLES OTHERS          (DEGREES):  NULL ;  NULL ;  NULL       
   3   TORSION ANGLES, PERIOD 1    (DEGREES):   312 ; 6.305 ; 5.000       
   3   TORSION ANGLES, PERIOD 2    (DEGREES):    97 ;38.562 ;25.361       
   3   TORSION ANGLES, PERIOD 3    (DEGREES):   404 ;10.801 ;15.000       
   3   TORSION ANGLES, PERIOD 4    (DEGREES):    13 ;10.134 ;15.000       
   3   CHIRAL-CENTER RESTRAINTS       (A**3):   369 ; 0.085 ; 0.200       
   3   GENERAL PLANES REFINED ATOMS      (A):  1727 ; 0.008 ; 0.020       
   3   GENERAL PLANES OTHERS             (A):  NULL ;  NULL ;  NULL       
   3   NON-BONDED CONTACTS REFINED ATOMS (A):  1106 ; 0.197 ; 0.200       
   3   NON-BONDED CONTACTS OTHERS        (A):  NULL ;  NULL ;  NULL       
   3   NON-BONDED TORSION REFINED ATOMS  (A):  1496 ; 0.306 ; 0.200       
   3   NON-BONDED TORSION OTHERS         (A):  NULL ;  NULL ;  NULL       
   3   H-BOND (X...Y) REFINED ATOMS      (A):   281 ; 0.123 ; 0.200       
   3   H-BOND (X...Y) OTHERS             (A):  NULL ;  NULL ;  NULL       
   3   POTENTIAL METAL-ION REFINED ATOMS (A):  NULL ;  NULL ;  NULL       
   3   POTENTIAL METAL-ION OTHERS        (A):  NULL ;  NULL ;  NULL       
   3   SYMMETRY VDW REFINED ATOMS        (A):    78 ; 0.159 ; 0.200       
   3   SYMMETRY VDW OTHERS               (A):  NULL ;  NULL ;  NULL       
   3   SYMMETRY H-BOND REFINED ATOMS     (A):    54 ; 0.108 ; 0.200       
   3   SYMMETRY H-BOND OTHERS            (A):  NULL ;  NULL ;  NULL       
   3   SYMMETRY METAL-ION REFINED ATOMS  (A):  NULL ;  NULL ;  NULL       
   3   SYMMETRY METAL-ION OTHERS         (A):  NULL ;  NULL ;  NULL       
   3                                                                      
   3  ISOTROPIC THERMAL FACTOR RESTRAINTS.     COUNT   RMS    WEIGHT      
   3   MAIN-CHAIN BOND REFINED ATOMS  (A**2):  1479 ; 1.072 ; 1.500       
   3   MAIN-CHAIN BOND OTHER ATOMS    (A**2):  NULL ;  NULL ;  NULL       
   3   MAIN-CHAIN ANGLE REFINED ATOMS (A**2):  2347 ; 1.583 ; 2.000       
   3   MAIN-CHAIN ANGLE OTHER ATOMS   (A**2):  NULL ;  NULL ;  NULL       
   3   SIDE-CHAIN BOND REFINED ATOMS  (A**2):   906 ; 2.109 ; 3.000       
   3   SIDE-CHAIN BOND OTHER ATOMS    (A**2):  NULL ;  NULL ;  NULL       
   3   SIDE-CHAIN ANGLE REFINED ATOMS (A**2):   807 ; 2.975 ; 4.500       
   3   SIDE-CHAIN ANGLE OTHER ATOMS   (A**2):  NULL ;  NULL ;  NULL       
   3   LONG RANGE B REFINED ATOMS     (A**2):  NULL ;  NULL ;  NULL       
   3   LONG RANGE B OTHER ATOMS       (A**2):  NULL ;  NULL ;  NULL       
   3                                                                      
   3 ANISOTROPIC THERMAL FACTOR RESTRAINTS.    COUNT   RMS   WEIGHT       
   3   RIGID-BOND RESTRAINTS          (A**2):  2385 ; 1.037 ; 3.000       
   3   SPHERICITY; FREE ATOMS         (A**2):   477 ; 4.599 ; 3.000       
   3   SPHERICITY; BONDED ATOMS       (A**2):  2267 ; 3.693 ; 3.000       
   3                                                                      
   3  NCS RESTRAINTS STATISTICS                                           
   3   NUMBER OF DIFFERENT NCS GROUPS : NULL                              
   3                                                                      
   3  TLS DETAILS                                                         
   3   NUMBER OF TLS GROUPS  : NULL                                       
   3                                                                      
   3  BULK SOLVENT MODELLING.                                             
   3   METHOD USED : MASK                                                 
   3   PARAMETERS FOR MASK CALCULATION                                    
   3   VDW PROBE RADIUS   : 1.40                                          
   3   ION PROBE RADIUS   : 0.80                                          
   3   SHRINKAGE RADIUS   : 0.80                                          
   3                                                                      
   3  OTHER REFINEMENT REMARKS: NULL                                      
   4                                                                      
   4 2ZQC COMPLIES WITH FORMAT V. 3.30, 13-JUL-11                         
 100                                                                      
 100 THIS ENTRY HAS BEEN PROCESSED BY PDBJ ON 11-AUG-08.                  
 100 THE DEPOSITION ID IS D_1000028292.                                   
 200                                                                      
 200 EXPERIMENTAL DETAILS                                                 
 200  EXPERIMENT TYPE                : X-RAY DIFFRACTION                  
 200  DATE OF DATA COLLECTION        : 28-JAN-08                          
 200  TEMPERATURE           (KELVIN) : 100                                
 200  PH                             : 5.50                               
 200  NUMBER OF CRYSTALS USED        : 1                                  
 200                                                                      
 200  SYNCHROTRON              (Y/N) : Y                                  
 200  RADIATION SOURCE               : SPRING-8                           
 200  BEAMLINE                       : BL26B2                             
 200  X-RAY GENERATOR MODEL          : NULL                               
 200  MONOCHROMATIC OR LAUE    (M/L) : M                                  
 200  WAVELENGTH OR RANGE        (A) : 1.0000                             
 200  MONOCHROMATOR                  : SI(111)                            
 200  OPTICS                         : MIRRORS                            
 200                                                                      
 200  DETECTOR TYPE                  : CCD                                
 200  DETECTOR MANUFACTURER          : MARMOSAIC 225 MM CCD               
 200  INTENSITY-INTEGRATION SOFTWARE : HKL-2000                           
 200  DATA SCALING SOFTWARE          : SCALEPACK                          
 200                                                                      
 200  NUMBER OF UNIQUE REFLECTIONS   : 129890                             
 200  RESOLUTION RANGE HIGH      (A) : 1.070                              
 200  RESOLUTION RANGE LOW       (A) : 50.000                             
 200  REJECTION CRITERIA  (SIGMA(I)) : 0.000                              
 200                                                                      
 200 OVERALL.                                                             
 200  COMPLETENESS FOR RANGE     (%) : 99.9                               
 200  DATA REDUNDANCY                : 10.40                              
 200  R MERGE                    (I) : 0.07700                            
 200  R SYM                      (I) : NULL                               
 200  <I/SIGMA(I)> FOR THE DATA SET  : 19.1000                            
 200                                                                      
 200 IN THE HIGHEST RESOLUTION SHELL.                                     
 200  HIGHEST RESOLUTION SHELL, RANGE HIGH (A) : 1.07                     
 200  HIGHEST RESOLUTION SHELL, RANGE LOW  (A) : 1.09                     
 200  COMPLETENESS FOR SHELL     (%) : 98.3                               
 200  DATA REDUNDANCY IN SHELL       : 7.30                               
 200  R MERGE FOR SHELL          (I) : 0.31300                            
 200  R SYM FOR SHELL            (I) : NULL                               
 200  <I/SIGMA(I)> FOR SHELL         : 5.160                              
 200                                                                      
 200 DIFFRACTION PROTOCOL: SINGLE WAVELENGTH                              
 200 METHOD USED TO DETERMINE THE STRUCTURE: MOLECULAR REPLACEMENT        
 200 SOFTWARE USED: MOLREP                                                
 200 STARTING MODEL: PDB ENTRY 2ZQ7                                       
 200                                                                      
 200 REMARK: NULL                                                         
 280                                                                      
 280 CRYSTAL                                                              
 280 SOLVENT CONTENT, VS   (%): 52.86                                     
 280 MATTHEWS COEFFICIENT, VM (ANGSTROMS**3/DA): 2.61                     
 280                                                                      
 280 CRYSTALLIZATION CONDITIONS: 1.95-2.10M AMMONIUM SULFATE, 0.2M        
 280  SODIUM CITRATE, PH5.50, VAPOR DIFFUSION, HANGING DROP,              
 280  TEMPERATURE 298K                                                    
 290                                                                      
 290 CRYSTALLOGRAPHIC SYMMETRY                                            
 290 SYMMETRY OPERATORS FOR SPACE GROUP: P 32 2 1                         
 290                                                                      
 290      SYMOP   SYMMETRY                                                
 290     NNNMMM   OPERATOR                                                
 290       1555   X,Y,Z                                                   
 290       2555   -Y,X-Y,Z+2/3                                            
 290       3555   -X+Y,-X,Z+1/3                                           
 290       4555   Y,X,-Z                                                  
 290       5555   X-Y,-Y,-Z+1/3                                           
 290       6555   -X,-X+Y,-Z+2/3                                          
 290                                                                      
 290     WHERE NNN -> OPERATOR NUMBER                                     
 290           MMM -> TRANSLATION VECTOR                                  
 290                                                                      
 290 CRYSTALLOGRAPHIC SYMMETRY TRANSFORMATIONS                            
 290 THE FOLLOWING TRANSFORMATIONS OPERATE ON THE ATOM/HETATM             
 290 RECORDS IN THIS ENTRY TO PRODUCE CRYSTALLOGRAPHICALLY                
 290 RELATED MOLECULES.                                                   
 290   SMTRY1   1  1.000000  0.000000  0.000000        0.00000            
 290   SMTRY2   1  0.000000  1.000000  0.000000        0.00000            
 290   SMTRY3   1  0.000000  0.000000  1.000000        0.00000            
 290   SMTRY1   2 -0.500000 -0.866025  0.000000        0.00000            
 290   SMTRY2   2  0.866025 -0.500000  0.000000        0.00000            
 290   SMTRY3   2  0.000000  0.000000  1.000000       65.05200            
 290   SMTRY1   3 -0.500000  0.866025  0.000000        0.00000            
 290   SMTRY2   3 -0.866025 -0.500000  0.000000        0.00000            
 290   SMTRY3   3  0.000000  0.000000  1.000000       32.52600            
 290   SMTRY1   4 -0.500000  0.866025  0.000000        0.00000            
 290   SMTRY2   4  0.866025  0.500000  0.000000        0.00000            
 290   SMTRY3   4  0.000000  0.000000 -1.000000        0.00000            
 290   SMTRY1   5  1.000000  0.000000  0.000000        0.00000            
 290   SMTRY2   5  0.000000 -1.000000  0.000000        0.00000            
 290   SMTRY3   5  0.000000  0.000000 -1.000000       32.52600            
 290   SMTRY1   6 -0.500000 -0.866025  0.000000        0.00000            
 290   SMTRY2   6 -0.866025  0.500000  0.000000        0.00000            
 290   SMTRY3   6  0.000000  0.000000 -1.000000       65.05200            
 290                                                                      
 290 REMARK: NULL                                                         
 300                                                                      
 300 BIOMOLECULE: 1                                                       
 300 SEE REMARK 350 FOR THE AUTHOR PROVIDED AND/OR PROGRAM                
 300 GENERATED ASSEMBLY INFORMATION FOR THE STRUCTURE IN                  
 300 THIS ENTRY. THE REMARK MAY ALSO PROVIDE INFORMATION ON               
 300 BURIED SURFACE AREA.                                                 
 350                                                                      
 350 COORDINATES FOR A COMPLETE MULTIMER REPRESENTING THE KNOWN           
 350 BIOLOGICALLY SIGNIFICANT OLIGOMERIZATION STATE OF THE                
 350 MOLECULE CAN BE GENERATED BY APPLYING BIOMT TRANSFORMATIONS          
 350 GIVEN BELOW.  BOTH NON-CRYSTALLOGRAPHIC AND                          
 350 CRYSTALLOGRAPHIC OPERATIONS ARE GIVEN.                               
 350                                                                      
 350 BIOMOLECULE: 1                                                       
 350 AUTHOR DETERMINED BIOLOGICAL UNIT: MONOMERIC                         
 350 SOFTWARE DETERMINED QUATERNARY STRUCTURE: MONOMERIC                  
 350 SOFTWARE USED: PISA                                                  
 350 APPLY THE FOLLOWING TO CHAINS: A                                     
 350   BIOMT1   1  1.000000  0.000000  0.000000        0.00000            
 350   BIOMT2   1  0.000000  1.000000  0.000000        0.00000            
 350   BIOMT3   1  0.000000  0.000000  1.000000        0.00000            
 375                                                                      
 375 SPECIAL POSITION                                                     
 375 THE FOLLOWING ATOMS ARE FOUND TO BE WITHIN 0.15 ANGSTROMS            
 375 OF A SYMMETRY RELATED ATOM AND ARE ASSUMED TO BE ON SPECIAL          
 375 POSITIONS.                                                           
 375                                                                      
 375 ATOM RES CSSEQI                                                      
 375      HOH A 422  LIES ON A SPECIAL POSITION.                          
 465                                                                      
 465 MISSING RESIDUES                                                     
 465 THE FOLLOWING RESIDUES WERE NOT LOCATED IN THE                       
 465 EXPERIMENT. (M=MODEL NUMBER; RES=RESIDUE NAME; C=CHAIN               
 465 IDENTIFIER; SSSEQ=SEQUENCE NUMBER; I=INSERTION CODE.)                
 465                                                                      
 465   M RES C SSSEQI                                                     
 465     ALA A    26                                                      
 470                                                                      
 470 MISSING ATOM                                                         
 470 THE FOLLOWING RESIDUES HAVE MISSING ATOMS (M=MODEL NUMBER;           
 470 RES=RESIDUE NAME; C=CHAIN IDENTIFIER; SSEQ=SEQUENCE NUMBER;          
 470 I=INSERTION CODE):                                                   
 470   M RES CSSEQI  ATOMS                                                
 470     ASN A  27    CG   OD1  ND2                                       
 500                                                                      
 500 GEOMETRY AND STEREOCHEMISTRY                                         
 500 SUBTOPIC: TORSION ANGLES                                             
 500                                                                      
 500 TORSION ANGLES OUTSIDE THE EXPECTED RAMACHANDRAN REGIONS:            
 500 (M=MODEL NUMBER; RES=RESIDUE NAME; C=CHAIN IDENTIFIER;               
 500 SSEQ=SEQUENCE NUMBER; I=INSERTION CODE).                             
 500                                                                      
 500 STANDARD TABLE:                                                      
 500 FORMAT:(10X,I3,1X,A3,1X,A1,I4,A1,4X,F7.2,3X,F7.2)                    
 500                                                                      
 500 EXPECTED VALUES: GJ KLEYWEGT AND TA JONES (1996). PHI/PSI-           
 500 CHOLOGY: RAMACHANDRAN REVISITED. STRUCTURE 4, 1395 - 1400            
 500                                                                      
 500  M RES CSSEQI        PSI       PHI                                   
 500    CYS A  69     -139.68     49.32                                   
 500    VAL A 103     -137.46   -126.23                                   
 500    TYR A 105      105.97   -161.52                                   
 500    ASN A 106       61.39   -156.31                                   
 500    ASN A 114       -3.62     78.60                                   
 500    SER A 220     -128.15   -102.23                                   
 500                                                                      
 500 REMARK: NULL                                                         
 800                                                                      
 800 SITE                                                                 
 800 SITE_IDENTIFIER: AC1                                                 
 800 EVIDENCE_CODE: SOFTWARE                                              
 800 SITE_DESCRIPTION: BINDING SITE FOR RESIDUE SO4 A 1                   
 800                                                                      
 800 SITE_IDENTIFIER: AC2                                                 
 800 EVIDENCE_CODE: SOFTWARE                                              
 800 SITE_DESCRIPTION: BINDING SITE FOR RESIDUE SO4 A 2                   
 800                                                                      
 800 SITE_IDENTIFIER: AC3                                                 
 800 EVIDENCE_CODE: SOFTWARE                                              
 800 SITE_DESCRIPTION: BINDING SITE FOR RESIDUE SO4 A 3                   
 800                                                                      
 800 SITE_IDENTIFIER: AC4                                                 
 800 EVIDENCE_CODE: SOFTWARE                                              
 800 SITE_DESCRIPTION: BINDING SITE FOR RESIDUE SO4 A 5                   
 800                                                                      
 800 SITE_IDENTIFIER: AC5                                                 
 800 EVIDENCE_CODE: SOFTWARE                                              
 800 SITE_DESCRIPTION: BINDING SITE FOR RESIDUE AZR A 301                 
 900                                                                      
 900 RELATED ENTRIES                                                      
 900 RELATED ID: 2ZQ7   RELATED DB: PDB                                   
 900 APO STRUCTURE OF TOHO-1 E166A/R274N/R276N TRIPLE MUTANT              
 900 RELATED ID: 2ZQ8   RELATED DB: PDB                                   
 900 APO STRUCTURE OF TOHO-1 R274N/R276N DOUBLE MUTANT                    
 900 RELATED ID: 2ZQ9   RELATED DB: PDB                                   
 900 CEPHALOTHIN ACYL-INTERMEDIATE STRUCTURE OF TOHO-1 E166A/R274N/R276N  
 900 TRIPLE MUTANT                                                        
 900 RELATED ID: 2ZQA   RELATED DB: PDB                                   
 900 CEFOTAXIME ACYL-INTERMEDIATE STRUCTURE OF TOHO-1 E166A/R274N/R276N   
 900 TRIPLE MUTANT                                                        
 900 RELATED ID: 2ZQD   RELATED DB: PDB                                   
 900 CEFTAZIDIME ACYL-INTERMEDIATE STRUCTURE OF TOHO-1 E166A/R274N/R276N  
 900 TRIPLE MUTANT                                                        

>  <DBREF>
 2ZQC A   26   290  UNP    Q47066   BLT1_ECOLX      30    291             

>  <SEQADV>
 2ZQC ALA A  166  UNP  Q47066    GLU   169 ENGINEERED MUTATION            
 2ZQC ASN A  274  UNP  Q47066    ARG   275 ENGINEERED MUTATION            
 2ZQC ASN A  276  UNP  Q47066    ARG   277 ENGINEERED MUTATION            

>  <SEQRES>
   1 A  262  ALA ASN SER VAL GLN GLN GLN LEU GLU ALA LEU GLU LYS          
   2 A  262  SER SER GLY GLY ARG LEU GLY VAL ALA LEU ILE ASN THR          
   3 A  262  ALA ASP ASN SER GLN ILE LEU TYR ARG ALA ASP GLU ARG          
   4 A  262  PHE ALA MET CYS SER THR SER LYS VAL MET ALA ALA ALA          
   5 A  262  ALA VAL LEU LYS GLN SER GLU SER ASP LYS HIS LEU LEU          
   6 A  262  ASN GLN ARG VAL GLU ILE LYS LYS SER ASP LEU VAL ASN          
   7 A  262  TYR ASN PRO ILE ALA GLU LYS HIS VAL ASN GLY THR MET          
   8 A  262  THR LEU ALA GLU LEU GLY ALA ALA ALA LEU GLN TYR SER          
   9 A  262  ASP ASN THR ALA MET ASN LYS LEU ILE ALA HIS LEU GLY          
  10 A  262  GLY PRO ASP LYS VAL THR ALA PHE ALA ARG SER LEU GLY          
  11 A  262  ASP GLU THR PHE ARG LEU ASP ARG THR ALA PRO THR LEU          
  12 A  262  ASN THR ALA ILE PRO GLY ASP PRO ARG ASP THR THR THR          
  13 A  262  PRO LEU ALA MET ALA GLN THR LEU LYS ASN LEU THR LEU          
  14 A  262  GLY LYS ALA LEU ALA GLU THR GLN ARG ALA GLN LEU VAL          
  15 A  262  THR TRP LEU LYS GLY ASN THR THR GLY SER ALA SER ILE          
  16 A  262  ARG ALA GLY LEU PRO LYS SER TRP VAL VAL GLY ASP LYS          
  17 A  262  THR GLY SER GLY ASP TYR GLY THR THR ASN ASP ILE ALA          
  18 A  262  VAL ILE TRP PRO GLU ASN HIS ALA PRO LEU VAL LEU VAL          
  19 A  262  THR TYR PHE THR GLN PRO GLU GLN LYS ALA GLU ASN ARG          
  20 A  262  ASN ASP ILE LEU ALA ALA ALA ALA LYS ILE VAL THR HIS          
  21 A  262  GLY PHE                                                      

>  <HET>
 SO4  A   1       5                                                       
 SO4  A   2       5                                                       
 SO4  A   3       5                                                       
 SO4  A   5       5                                                       
 AZR  A 301      33                                                       

>  <HETNAM>
     SO4 SULFATE ION                                                      
     AZR 2-({[(1Z)-1-(2-AMINO-1,3-THIAZOL-4-YL)-2-OXO-2-{[(2S,            
   2 AZR  3S)-1-OXO-3-(SULFOAMINO)BUTAN-2-                                
   3 AZR  YL]AMINO}ETHYLIDENE]AMINO}OXY)-2-METHYLPROPANOIC ACID           

>  <HETSYN>
     AZR AZTREONAM, OPEN FORM                                             

>  <FORMUL>
   2  SO4    4(O4 S 2-)                                                   
   6  AZR    C13 H19 N5 O8 S2                                             
   7  HOH   *410(H2 O)                                                    

>  <HELIX>
   1   1 SER A   28  SER A   40  1                                  13    
   2   2 CYS A   69  THR A   71  5                                   3    
   3   3 SER A   72  GLU A   85  1                                  14    
   4   4 LYS A   98  LEU A  102  5                                   5    
   5   5 ILE A  108  VAL A  113  5                                   6    
   6   6 LEU A  119  TYR A  129  1                                  11    
   7   7 ASP A  131  GLY A  143  1                                  13    
   8   8 GLY A  144  LEU A  155  1                                  12    
   9   9 PRO A  167  THR A  171  5                                   5    
  10  10 THR A  182  GLY A  196  1                                  15    
  11  11 ALA A  200  GLY A  213  1                                  14    
  12  12 SER A  220  LEU A  225  5                                   6    
  13  13 ARG A  275  HIS A  288  1                                  14    

>  <SHEET>
   1   A 5 GLN A  56  TYR A  60  0                                        
   2   A 5 ARG A  43  ASN A  50 -1  N  VAL A  46   O  TYR A  60           
   3   A 5 LEU A 259  THR A 266 -1  O  TYR A 264   N  GLY A  45           
   4   A 5 THR A 243  TRP A 251 -1  N  ILE A 250   O  LEU A 259           
   5   A 5 VAL A 230  GLY A 238 -1  N  VAL A 230   O  TRP A 251           
   1   B 2 PHE A  66  ALA A  67  0                                        
   2   B 2 THR A 180  THR A 181 -1  O  THR A 181   N  PHE A  66           
   1   C 2 ARG A  94  GLU A  96  0                                        
   2   C 2 THR A 116  THR A 118 -1  O  MET A 117   N  VAL A  95           

>  <LINK>
       OG  SER A  70                 C20 AZR A 301     1555   1555  1.34  

>  <CISPEP>
   1 ALA A  166    PRO A  167          0         3.40                     

>  <SITE>
   1 AC1  9 TRP A 229  PRO A 252  GLU A 254  ASN A 255                    
   2 AC1  9 HIS A 256  PHE A 290  HOH A 605  HOH A 607                    
   3 AC1  9 HOH A 631                                                     
   1 AC2 13 LYS A  82  ALA A 198  ASN A 274  ASN A 276                    
   2 AC2 13 ASP A 277  HOH A 377  HOH A 395  HOH A 427                    
   3 AC2 13 HOH A 439  HOH A 445  HOH A 448  HOH A 451                    
   4 AC2 13 HOH A 531                                                     
   1 AC3  5 ALA A  52  ARG A 178  HOH A 340  HOH A 365                    
   2 AC3  5 HOH A 429                                                     
   1 AC4  5 LYS A  88  HIS A  89  ASN A  92  HOH A 339                    
   2 AC4  5 HOH A 397                                                     
   1 AC5 19 CYS A  69  SER A  70  ASN A 104  TYR A 105                    
   2 AC5 19 SER A 130  ASN A 132  PRO A 167  ASN A 170                    
   3 AC5 19 LYS A 234  THR A 235  GLY A 236  SER A 237                    
   4 AC5 19 ASP A 240  HOH A 381  HOH A 636  HOH A 652                    
   5 AC5 19 HOH A 680  HOH A 694  HOH A 695                               

>  <ORIGX1>
      1.000000  0.000000  0.000000        0.00000                         

>  <ORIGX2>
      0.000000  1.000000  0.000000        0.00000                         

>  <ORIGX3>
      0.000000  0.000000  1.000000        0.00000                         

>  <SCALE1>
      0.013833  0.007986  0.000000        0.00000                         

>  <SCALE2>
      0.000000  0.015973  0.000000        0.00000                         

>  <SCALE3>
      0.000000  0.000000  0.010248        0.00000                         

>  <ANISOU>
  494  N   SER A  70      611    420    747     -4     19     81       N  
  495  CA  SER A  70      536    463    711     23     -9     77       C  
  496  C   SER A  70      599    470    555    -30     66     76       C  
  497  O   SER A  70      602    396    739     -6     -9     36       O  
  498  CB  SER A  70      599    559    653    -32    -91      9       C  
  499  OG  SER A  70      592    540    681     25      0     42       O  
 2236  C7  AZR A 301     1011    828   1096    -59   -288    194       C  
 2237  S8  AZR A 301     1646   1356   1827    -62   -268   -150       S  
 2238  O9  AZR A 301      561    517    767    -45     -2     58       O  
 2239  O10 AZR A 301      742    705   1258     -5   -217    -10       O  
 2240  O11 AZR A 301     1961   1720   1680   -245    151   -250       O  
 2241  N12 AZR A 301      785    492    723      9    -73     42       N  
 2242  N13 AZR A 301      808    486   1078     48   -177    -24       N  
 2243  N14 AZR A 301     1728   1141   1516   -134     41   -293       N  
 2244  N15 AZR A 301     1332    888   1513   -337   -429    -72       N  
 2245  N16 AZR A 301      896   1162   1517   -308    -93   -771       N  
 2246  S17 AZR A 301      853    517    770     16     20     -3       S  
 2247  C18 AZR A 301      749    671    791     29   -108     70       C  
 2248  C19 AZR A 301      663    485    798    -12   -135      5       C  
 2249  C20 AZR A 301      552    536    856    -58    -41     43       C  
 2250  C21 AZR A 301      877    552    968    -16   -174     30       C  
 2251  C22 AZR A 301     1069    844   1420    -95   -214    -31       C  
 2252  C23 AZR A 301     2255   2145   1921    -69     -9    -69       C  
 2253  C24 AZR A 301     1205    751   1429   -266   -323    109       C  
 2254  C25 AZR A 301     1388   1148   1666    -44   -500    -76       C  
 2255  C26 AZR A 301     1734   1269   1567   -354   -253    -28       C  
 2256  C27AAZR A 301     2203   2187   2050    -48     50    -53       C  
 2257  C27BAZR A 301     2300   2232   2098    -57     64      1       C  
 2258  C28AAZR A 301     2202   2220   2279      1      0    -55       C  
 2259  C28BAZR A 301     2107   2108   1837    -19     29     15       C  
 2260  C29AAZR A 301     2253   2196   2094    -23     11    -79       C  
 2261  C29BAZR A 301     2362   2291   2246    -77    -53     -3       C  
 2262  O30AAZR A 301     2406   2451   2203     -1    -71    -91       O  
 2263  O30BAZR A 301     2588   2538   2515    -81     62    -11       O  
 2264  O31AAZR A 301     2430   2330   2342     35    -45    -65       O  
 2265  O31BAZR A 301     2573   2488   2385    -42    -46    -92       O  
 2266  O32 AZR A 301      747    970    944    -34     51   -132       O  
 2267  O33 AZR A 301     1347    589   1450    175    381    -32       O  
 2268  O34 AZR A 301     1157   1163    825     13     57    141       O  

>  <MASTER>
      326    0    5   13    9    0   16    6 2424    1   55   21          

$$$$
