start_structures/Ligand_Substrate/Ligand_Complex_Stripped/BDB_1KE3.pdb
 OpenBabel08222315203D

 24 25  0  0  1  0  0  0  0  0999 V2000
   26.8360    1.6120   16.0970 N   0  0  0  0  0  0  0  0  0  0  0  0
   28.1750    2.0510   16.4270 C   0  0  2  0  0  0  0  0  0  0  0  0
   29.0420    1.0940   17.2510 C   0  0  0  0  0  0  0  0  0  0  0  0
   30.2190    1.3380   17.4150 O   0  0  0  0  0  0  0  0  0  0  0  0
   28.1090    3.4190   17.0770 C   0  0  0  0  0  0  0  0  0  0  0  0
   27.7750    4.3520   16.0650 O   0  0  0  0  0  0  0  0  0  0  0  0
   26.2970    5.0090   16.4010 B   0  0  0  0  0  0  0  0  0  0  0  0
   25.3080    3.9330   16.7160 O   0  0  0  0  0  0  0  0  0  0  0  0
   26.4280    5.9110   17.5510 O   0  0  0  0  0  0  0  0  0  0  0  0
   25.7930    5.7760   15.1660 C   0  0  0  0  0  0  0  0  0  0  0  0
   25.4890    5.0450   14.0440 C   0  0  0  0  0  0  0  0  0  0  0  0
   24.9350    5.6270   12.9610 C   0  0  0  0  0  0  0  0  0  0  0  0
   24.6510    7.0190   12.9650 C   0  0  0  0  0  0  0  0  0  0  0  0
   25.0010    7.7770   14.1280 C   0  0  0  0  0  0  0  0  0  0  0  0
   25.5620    7.1430   15.2030 C   0  0  0  0  0  0  0  0  0  0  0  0
   23.9350    7.6190   11.8030 C   0  0  0  0  0  0  0  0  0  0  0  0
   24.2260    7.2230   10.5120 C   0  0  0  0  0  0  0  0  0  0  0  0
   23.5170    7.7050    9.4550 C   0  0  0  0  0  0  0  0  0  0  0  0
   22.4610    8.6290    9.6730 C   0  0  0  0  0  0  0  0  0  0  0  0
   22.1850    9.0440   10.9950 C   0  0  0  0  0  0  0  0  0  0  0  0
   22.9180    8.5380   12.0240 C   0  0  0  0  0  0  0  0  0  0  0  0
   21.6480    9.1320    8.5420 B   0  0  0  0  0  0  0  0  0  0  0  0
   22.0710   10.1950    7.6380 O   0  0  0  0  0  0  0  0  0  0  0  0
   20.3130    8.6220    8.1970 O   0  0  0  0  0  0  0  0  0  0  0  0
  2  1  1  1  0  0  0
  2  5  1  0  0  0  0
  2  3  1  0  0  0  0
  3  4  2  0  0  0  0
  6  7  1  0  0  0  0
  6  5  1  0  0  0  0
  7  8  1  0  0  0  0
  7  9  1  0  0  0  0
  7 10  1  0  0  0  0
 10 11  2  0  0  0  0
 10 15  1  0  0  0  0
 11 12  1  0  0  0  0
 12 13  2  0  0  0  0
 13 14  1  0  0  0  0
 13 16  1  0  0  0  0
 14 15  2  0  0  0  0
 16 17  2  0  0  0  0
 16 21  1  0  0  0  0
 17 18  1  0  0  0  0
 18 19  2  0  0  0  0
 19 20  1  0  0  0  0
 19 22  1  0  0  0  0
 20 21  2  0  0  0  0
 22 23  1  0  0  0  0
 22 24  1  0  0  0  0
M  END
>  <HEADER>
    HYDROLASE                               14-NOV-01   1KE3              

>  <TITLE>
    X-RAY CRYSTAL STRUCTURE OF AMPC BETA-LACTAMASE FROM E. COLI IN COMPLEX
   2 WITH THE INHIBITOR 4,4'-BIPHENYLDIBORONIC ACID                       

>  <COMPND>
    MOL_ID: 1;                                                            
   2 MOLECULE: BETA-LACTAMASE;                                            
   3 CHAIN: A, B;                                                         
   4 SYNONYM: CEPHALOSPORINASE;                                           
   5 EC: 3.5.2.6;                                                         
   6 ENGINEERED: YES                                                      

>  <SOURCE>
    MOL_ID: 1;                                                            
   2 ORGANISM_SCIENTIFIC: ESCHERICHIA COLI;                               
   3 ORGANISM_TAXID: 562;                                                 
   4 GENE: K12;                                                           
   5 EXPRESSION_SYSTEM: ESCHERICHIA COLI;                                 
   6 EXPRESSION_SYSTEM_TAXID: 562;                                        
   7 EXPRESSION_SYSTEM_STRAIN: JM109;                                     
   8 EXPRESSION_SYSTEM_VECTOR_TYPE: PLASMID;                              
   9 EXPRESSION_SYSTEM_PLASMID: POGO295                                   

>  <KEYWDS>
    CEPHALOSPORINASE, BETA-LACTAMASE, SERINE HYDROLASE, PHENYLBORONIC     
   2 ACID INHIBITOR, HYDROLASE                                            

>  <EXPDTA>
    X-RAY DIFFRACTION                                                     

>  <AUTHOR>
    R.A.POWERS,B.K.SHOICHET                                               

>  <REVDAT>
   3   16-AUG-23 1KE3    1       REMARK LINK                              
   2   24-FEB-09 1KE3    1       VERSN                                    
   1   17-JUL-02 1KE3    0                                                

>  <JRNL>
      AUTH   R.A.POWERS,B.K.SHOICHET                                      
      TITL   STRUCTURE-BASED APPROACH FOR BINDING SITE IDENTIFICATION ON  
      TITL 2 AMPC BETA-LACTAMASE.                                         
      REF    J.MED.CHEM.                   V.  45  3222 2002              
      REFN                   ISSN 0022-2623                               
      PMID   12109906                                                     
      DOI    10.1021/JM020002P                                            

>  <REMARK>
   2                                                                      
   2 RESOLUTION.    2.15 ANGSTROMS.                                       
   3                                                                      
   3 REFINEMENT.                                                          
   3   PROGRAM     : CNS 1.0                                              
   3   AUTHORS     : BRUNGER,ADAMS,CLORE,DELANO,GROS,GROSSE-              
   3               : KUNSTLEVE,JIANG,KUSZEWSKI,NILGES,PANNU,              
   3               : READ,RICE,SIMONSON,WARREN                            
   3                                                                      
   3  REFINEMENT TARGET : ENGH & HUBER                                    
   3                                                                      
   3  DATA USED IN REFINEMENT.                                            
   3   RESOLUTION RANGE HIGH (ANGSTROMS) : 2.15                           
   3   RESOLUTION RANGE LOW  (ANGSTROMS) : 20.00                          
   3   DATA CUTOFF            (SIGMA(F)) : 2.000                          
   3   DATA CUTOFF HIGH         (ABS(F)) : NULL                           
   3   DATA CUTOFF LOW          (ABS(F)) : NULL                           
   3   COMPLETENESS (WORKING+TEST)   (%) : NULL                           
   3   NUMBER OF REFLECTIONS             : 41701                          
   3                                                                      
   3  FIT TO DATA USED IN REFINEMENT.                                     
   3   CROSS-VALIDATION METHOD          : NULL                            
   3   FREE R VALUE TEST SET SELECTION  : RANDOM                          
   3   R VALUE            (WORKING SET) : 0.193                           
   3   FREE R VALUE                     : 0.237                           
   3   FREE R VALUE TEST SET SIZE   (%) : 10.000                          
   3   FREE R VALUE TEST SET COUNT      : 4177                            
   3   ESTIMATED ERROR OF FREE R VALUE  : NULL                            
   3                                                                      
   3  FIT IN THE HIGHEST RESOLUTION BIN.                                  
   3   TOTAL NUMBER OF BINS USED           : NULL                         
   3   BIN RESOLUTION RANGE HIGH       (A) : 2.15                         
   3   BIN RESOLUTION RANGE LOW        (A) : 2.25                         
   3   BIN COMPLETENESS (WORKING+TEST) (%) : NULL                         
   3   REFLECTIONS IN BIN    (WORKING SET) : NULL                         
   3   BIN R VALUE           (WORKING SET) : 0.2581                       
   3   BIN FREE R VALUE                    : 0.3141                       
   3   BIN FREE R VALUE TEST SET SIZE  (%) : 11.00                        
   3   BIN FREE R VALUE TEST SET COUNT     : 513                          
   3   ESTIMATED ERROR OF BIN FREE R VALUE : NULL                         
   3                                                                      
   3  NUMBER OF NON-HYDROGEN ATOMS USED IN REFINEMENT.                    
   3   PROTEIN ATOMS            : 5538                                    
   3   NUCLEIC ACID ATOMS       : 0                                       
   3   HETEROGEN ATOMS          : 41                                      
   3   SOLVENT ATOMS            : 307                                     
   3                                                                      
   3  B VALUES.                                                           
   3   FROM WILSON PLOT           (A**2) : 23.93                          
   3   MEAN B VALUE      (OVERALL, A**2) : NULL                           
   3   OVERALL ANISOTROPIC B VALUE.                                       
   3    B11 (A**2) : NULL                                                 
   3    B22 (A**2) : NULL                                                 
   3    B33 (A**2) : NULL                                                 
   3    B12 (A**2) : NULL                                                 
   3    B13 (A**2) : NULL                                                 
   3    B23 (A**2) : NULL                                                 
   3                                                                      
   3  ESTIMATED COORDINATE ERROR.                                         
   3   ESD FROM LUZZATI PLOT        (A) : NULL                            
   3   ESD FROM SIGMAA              (A) : NULL                            
   3   LOW RESOLUTION CUTOFF        (A) : NULL                            
   3                                                                      
   3  CROSS-VALIDATED ESTIMATED COORDINATE ERROR.                         
   3   ESD FROM C-V LUZZATI PLOT    (A) : NULL                            
   3   ESD FROM C-V SIGMAA          (A) : NULL                            
   3                                                                      
   3  RMS DEVIATIONS FROM IDEAL VALUES.                                   
   3   BOND LENGTHS                 (A) : 0.010                           
   3   BOND ANGLES            (DEGREES) : 1.600                           
   3   DIHEDRAL ANGLES        (DEGREES) : NULL                            
   3   IMPROPER ANGLES        (DEGREES) : NULL                            
   3                                                                      
   3  ISOTROPIC THERMAL MODEL : NULL                                      
   3                                                                      
   3  ISOTROPIC THERMAL FACTOR RESTRAINTS.    RMS    SIGMA                
   3   MAIN-CHAIN BOND              (A**2) : NULL  ; NULL                 
   3   MAIN-CHAIN ANGLE             (A**2) : NULL  ; NULL                 
   3   SIDE-CHAIN BOND              (A**2) : NULL  ; NULL                 
   3   SIDE-CHAIN ANGLE             (A**2) : NULL  ; NULL                 
   3                                                                      
   3  BULK SOLVENT MODELING.                                              
   3   METHOD USED : NULL                                                 
   3   KSOL        : NULL                                                 
   3   BSOL        : NULL                                                 
   3                                                                      
   3  NCS MODEL : NULL                                                    
   3                                                                      
   3  NCS RESTRAINTS.                         RMS   SIGMA/WEIGHT          
   3   GROUP  1  POSITIONAL            (A) : NULL  ; NULL                 
   3   GROUP  1  B-FACTOR           (A**2) : NULL  ; NULL                 
   3                                                                      
   3  PARAMETER FILE  1  : NULL                                           
   3  TOPOLOGY FILE  1   : NULL                                           
   3                                                                      
   3  OTHER REFINEMENT REMARKS: NULL                                      
   4                                                                      
   4 1KE3 COMPLIES WITH FORMAT V. 3.30, 13-JUL-11                         
 100                                                                      
 100 THIS ENTRY HAS BEEN PROCESSED BY RCSB ON 20-NOV-01.                  
 100 THE DEPOSITION ID IS D_1000014854.                                   
 200                                                                      
 200 EXPERIMENTAL DETAILS                                                 
 200  EXPERIMENT TYPE                : X-RAY DIFFRACTION                  
 200  DATE OF DATA COLLECTION        : 31-MAR-99                          
 200  TEMPERATURE           (KELVIN) : 103                                
 200  PH                             : 8.7                                
 200  NUMBER OF CRYSTALS USED        : 1                                  
 200                                                                      
 200  SYNCHROTRON              (Y/N) : N                                  
 200  RADIATION SOURCE               : ROTATING ANODE                     
 200  BEAMLINE                       : NULL                               
 200  X-RAY GENERATOR MODEL          : RIGAKU RU200                       
 200  MONOCHROMATIC OR LAUE    (M/L) : M                                  
 200  WAVELENGTH OR RANGE        (A) : 1.5418                             
 200  MONOCHROMATOR                  : NULL                               
 200  OPTICS                         : NULL                               
 200                                                                      
 200  DETECTOR TYPE                  : IMAGE PLATE                        
 200  DETECTOR MANUFACTURER          : RIGAKU RAXIS IIC                   
 200  INTENSITY-INTEGRATION SOFTWARE : DENZO                              
 200  DATA SCALING SOFTWARE          : SCALEPACK                          
 200                                                                      
 200  NUMBER OF UNIQUE REFLECTIONS   : 42306                              
 200  RESOLUTION RANGE HIGH      (A) : 2.150                              
 200  RESOLUTION RANGE LOW       (A) : 20.000                             
 200  REJECTION CRITERIA  (SIGMA(I)) : -3.000                             
 200                                                                      
 200 OVERALL.                                                             
 200  COMPLETENESS FOR RANGE     (%) : 97.7                               
 200  DATA REDUNDANCY                : 2.700                              
 200  R MERGE                    (I) : 0.07500                            
 200  R SYM                      (I) : NULL                               
 200  <I/SIGMA(I)> FOR THE DATA SET  : 15.2000                            
 200                                                                      
 200 IN THE HIGHEST RESOLUTION SHELL.                                     
 200  HIGHEST RESOLUTION SHELL, RANGE HIGH (A) : 2.15                     
 200  HIGHEST RESOLUTION SHELL, RANGE LOW  (A) : 2.21                     
 200  COMPLETENESS FOR SHELL     (%) : 96.3                               
 200  DATA REDUNDANCY IN SHELL       : NULL                               
 200  R MERGE FOR SHELL          (I) : 0.33200                            
 200  R SYM FOR SHELL            (I) : NULL                               
 200  <I/SIGMA(I)> FOR SHELL         : 3.700                              
 200                                                                      
 200 DIFFRACTION PROTOCOL: SINGLE WAVELENGTH                              
 200 METHOD USED TO DETERMINE THE STRUCTURE: MOLECULAR REPLACEMENT        
 200 SOFTWARE USED: X-PLOR                                                
 200 STARTING MODEL: PDB ENTRY 1C3B                                       
 200                                                                      
 200 REMARK: NULL                                                         
 280                                                                      
 280 CRYSTAL                                                              
 280 SOLVENT CONTENT, VS   (%): 51.78                                     
 280 MATTHEWS COEFFICIENT, VM (ANGSTROMS**3/DA): 2.55                     
 280                                                                      
 280 CRYSTALLIZATION CONDITIONS: 1.7 M POTASSIUM PHOSPHATE, 590 UM 4,4'   
 280  -BIPHENYLDIBORONIC ACID, PH 8.7, VAPOR DIFFUSION, HANGING DROP,     
 280  TEMPERATURE 296K                                                    
 290                                                                      
 290 CRYSTALLOGRAPHIC SYMMETRY                                            
 290 SYMMETRY OPERATORS FOR SPACE GROUP: C 1 2 1                          
 290                                                                      
 290      SYMOP   SYMMETRY                                                
 290     NNNMMM   OPERATOR                                                
 290       1555   X,Y,Z                                                   
 290       2555   -X,Y,-Z                                                 
 290       3555   X+1/2,Y+1/2,Z                                           
 290       4555   -X+1/2,Y+1/2,-Z                                         
 290                                                                      
 290     WHERE NNN -> OPERATOR NUMBER                                     
 290           MMM -> TRANSLATION VECTOR                                  
 290                                                                      
 290 CRYSTALLOGRAPHIC SYMMETRY TRANSFORMATIONS                            
 290 THE FOLLOWING TRANSFORMATIONS OPERATE ON THE ATOM/HETATM             
 290 RECORDS IN THIS ENTRY TO PRODUCE CRYSTALLOGRAPHICALLY                
 290 RELATED MOLECULES.                                                   
 290   SMTRY1   1  1.000000  0.000000  0.000000        0.00000            
 290   SMTRY2   1  0.000000  1.000000  0.000000        0.00000            
 290   SMTRY3   1  0.000000  0.000000  1.000000        0.00000            
 290   SMTRY1   2 -1.000000  0.000000  0.000000        0.00000            
 290   SMTRY2   2  0.000000  1.000000  0.000000        0.00000            
 290   SMTRY3   2  0.000000  0.000000 -1.000000        0.00000            
 290   SMTRY1   3  1.000000  0.000000  0.000000       58.90000            
 290   SMTRY2   3  0.000000  1.000000  0.000000       39.18000            
 290   SMTRY3   3  0.000000  0.000000  1.000000        0.00000            
 290   SMTRY1   4 -1.000000  0.000000  0.000000       58.90000            
 290   SMTRY2   4  0.000000  1.000000  0.000000       39.18000            
 290   SMTRY3   4  0.000000  0.000000 -1.000000        0.00000            
 290                                                                      
 290 REMARK: NULL                                                         
 300                                                                      
 300 BIOMOLECULE: 1, 2                                                    
 300 SEE REMARK 350 FOR THE AUTHOR PROVIDED AND/OR PROGRAM                
 300 GENERATED ASSEMBLY INFORMATION FOR THE STRUCTURE IN                  
 300 THIS ENTRY. THE REMARK MAY ALSO PROVIDE INFORMATION ON               
 300 BURIED SURFACE AREA.                                                 
 350                                                                      
 350 COORDINATES FOR A COMPLETE MULTIMER REPRESENTING THE KNOWN           
 350 BIOLOGICALLY SIGNIFICANT OLIGOMERIZATION STATE OF THE                
 350 MOLECULE CAN BE GENERATED BY APPLYING BIOMT TRANSFORMATIONS          
 350 GIVEN BELOW.  BOTH NON-CRYSTALLOGRAPHIC AND                          
 350 CRYSTALLOGRAPHIC OPERATIONS ARE GIVEN.                               
 350                                                                      
 350 BIOMOLECULE: 1                                                       
 350 AUTHOR DETERMINED BIOLOGICAL UNIT: MONOMERIC                         
 350 APPLY THE FOLLOWING TO CHAINS: A                                     
 350   BIOMT1   1  1.000000  0.000000  0.000000        0.00000            
 350   BIOMT2   1  0.000000  1.000000  0.000000        0.00000            
 350   BIOMT3   1  0.000000  0.000000  1.000000        0.00000            
 350                                                                      
 350 BIOMOLECULE: 2                                                       
 350 AUTHOR DETERMINED BIOLOGICAL UNIT: MONOMERIC                         
 350 APPLY THE FOLLOWING TO CHAINS: B                                     
 350   BIOMT1   1  1.000000  0.000000  0.000000        0.00000            
 350   BIOMT2   1  0.000000  1.000000  0.000000        0.00000            
 350   BIOMT3   1  0.000000  0.000000  1.000000        0.00000            
 470                                                                      
 470 MISSING ATOM                                                         
 470 THE FOLLOWING RESIDUES HAVE MISSING ATOMS (M=MODEL NUMBER;           
 470 RES=RESIDUE NAME; C=CHAIN IDENTIFIER; SSEQ=SEQUENCE NUMBER;          
 470 I=INSERTION CODE):                                                   
 470   M RES CSSEQI  ATOMS                                                
 470     GLN A  22    CG   CD   OE1  NE2                                  
 470     LYS A  37    CG   CD   CE   NZ                                   
 470     LYS A  99    CG   CD   CE   NZ                                   
 470     LYS A 126    CG   CD   CE   NZ                                   
 470     ASN A 244    CG   OD1  ND2                                       
 470     LYS A 246    CG   CD   CE   NZ                                   
 470     GLN A 361    CG   CD   OE1  NE2                                  
 470     GLN B   7    CG   CD   OE1  NE2                                  
 470     LYS B  37    CG   CD   CE   NZ                                   
 470     GLN B  52    CG   CD   OE1  NE2                                  
 470     GLN B  57    CG   CD   OE1  NE2                                  
 470     GLU B 205    CG   CD   OE1  OE2                                  
 470     LYS B 207    CG   CD   CE   NZ                                   
 470     ASN B 244    CG   OD1  ND2                                       
 470     LYS B 246    CG   CD   CE   NZ                                   
 470     GLN B 361    CG   CD   OE1  NE2                                  
 500                                                                      
 500 GEOMETRY AND STEREOCHEMISTRY                                         
 500 SUBTOPIC: TORSION ANGLES                                             
 500                                                                      
 500 TORSION ANGLES OUTSIDE THE EXPECTED RAMACHANDRAN REGIONS:            
 500 (M=MODEL NUMBER; RES=RESIDUE NAME; C=CHAIN IDENTIFIER;               
 500 SSEQ=SEQUENCE NUMBER; I=INSERTION CODE).                             
 500                                                                      
 500 STANDARD TABLE:                                                      
 500 FORMAT:(10X,I3,1X,A3,1X,A1,I4,A1,4X,F7.2,3X,F7.2)                    
 500                                                                      
 500 EXPECTED VALUES: GJ KLEYWEGT AND TA JONES (1996). PHI/PSI-           
 500 CHOLOGY: RAMACHANDRAN REVISITED. STRUCTURE 4, 1395 - 1400            
 500                                                                      
 500  M RES CSSEQI        PSI       PHI                                   
 500    SER A 154      -68.38    -90.03                                   
 500    VAL A 178      -57.61   -125.42                                   
 500    TYR A 221       19.01   -164.40                                   
 500    GLU A 245      109.74    -57.33                                   
 500    ASN A 341       49.65    -98.97                                   
 500    PRO B   5      152.93    -48.66                                   
 500    LYS B 126      -15.89   -140.72                                   
 500    SER B 154      -69.13    -92.26                                   
 500    VAL B 178      -62.81   -121.04                                   
 500    TYR B 221       21.04   -167.16                                   
 500    ALA B 307      121.43    -37.58                                   
 500    LYS B 315      127.18   -174.35                                   
 500    ASN B 341       54.24    -94.44                                   
 500                                                                      
 500 REMARK: NULL                                                         
 800                                                                      
 800 SITE                                                                 
 800 SITE_IDENTIFIER: AC1                                                 
 800 EVIDENCE_CODE: SOFTWARE                                              
 800 SITE_DESCRIPTION: BINDING SITE FOR RESIDUE PO4 A 1                   
 800                                                                      
 800 SITE_IDENTIFIER: AC2                                                 
 800 EVIDENCE_CODE: SOFTWARE                                              
 800 SITE_DESCRIPTION: BINDING SITE FOR RESIDUE BDB A 364                 
 800                                                                      
 800 SITE_IDENTIFIER: AC3                                                 
 800 EVIDENCE_CODE: SOFTWARE                                              
 800 SITE_DESCRIPTION: BINDING SITE FOR RESIDUE BDB B 364                 
 900                                                                      
 900 RELATED ENTRIES                                                      
 900 RELATED ID: 1C3B   RELATED DB: PDB                                   
 900 AMPC IN COMPLEX WITH BENZO[B]THIOPHENE-2-BORONIC ACID                
 900 RELATED ID: 1GA9   RELATED DB: PDB                                   
 900 AMPC IN COMPLEX WITH 2,3-(4-BENZENESULFONYL-THIOPHENE-2-             
 900 SULFONYLAMINO)PHENYLBORONIC ACID                                     
 900 RELATED ID: 3BLS   RELATED DB: PDB                                   
 900 AMPC IN COMPLEX WITH M-AMINOPHENYLBORONIC ACID                       
 900 RELATED ID: 1KDS   RELATED DB: PDB                                   
 900 AMPC IN COMPLEX WITH 3-NITROPHENYLBORONIC ACID                       
 900 RELATED ID: 1KDW   RELATED DB: PDB                                   
 900 AMPC IN COMPLEX WITH 4-CARBOXYPHENYLBORONIC ACID                     
 900 RELATED ID: 1KE0   RELATED DB: PDB                                   
 900 AMPC IN COMPLEX WITH 4-(CARBOXYVIN-2-YL)PHENYLBORONIC ACID           
 900 RELATED ID: 1KE4   RELATED DB: PDB                                   
 900 AMPC                                                                 

>  <DBREF>
 1KE3 A    4   361  UNP    P00811   AMPC_ECOLI      20    377             
 1KE3 B    4   361  UNP    P00811   AMPC_ECOLI      20    377             

>  <SEQRES>
   1 A  358  ALA PRO GLN GLN ILE ASN ASP ILE VAL HIS ARG THR ILE          
   2 A  358  THR PRO LEU ILE GLU GLN GLN LYS ILE PRO GLY MET ALA          
   3 A  358  VAL ALA VAL ILE TYR GLN GLY LYS PRO TYR TYR PHE THR          
   4 A  358  TRP GLY TYR ALA ASP ILE ALA LYS LYS GLN PRO VAL THR          
   5 A  358  GLN GLN THR LEU PHE GLU LEU GLY SER VAL SER LYS THR          
   6 A  358  PHE THR GLY VAL LEU GLY GLY ASP ALA ILE ALA ARG GLY          
   7 A  358  GLU ILE LYS LEU SER ASP PRO THR THR LYS TYR TRP PRO          
   8 A  358  GLU LEU THR ALA LYS GLN TRP ASN GLY ILE THR LEU LEU          
   9 A  358  HIS LEU ALA THR TYR THR ALA GLY GLY LEU PRO LEU GLN          
  10 A  358  VAL PRO ASP GLU VAL LYS SER SER SER ASP LEU LEU ARG          
  11 A  358  PHE TYR GLN ASN TRP GLN PRO ALA TRP ALA PRO GLY THR          
  12 A  358  GLN ARG LEU TYR ALA ASN SER SER ILE GLY LEU PHE GLY          
  13 A  358  ALA LEU ALA VAL LYS PRO SER GLY LEU SER PHE GLU GLN          
  14 A  358  ALA MET GLN THR ARG VAL PHE GLN PRO LEU LYS LEU ASN          
  15 A  358  HIS THR TRP ILE ASN VAL PRO PRO ALA GLU GLU LYS ASN          
  16 A  358  TYR ALA TRP GLY TYR ARG GLU GLY LYS ALA VAL HIS VAL          
  17 A  358  SER PRO GLY ALA LEU ASP ALA GLU ALA TYR GLY VAL LYS          
  18 A  358  SER THR ILE GLU ASP MET ALA ARG TRP VAL GLN SER ASN          
  19 A  358  LEU LYS PRO LEU ASP ILE ASN GLU LYS THR LEU GLN GLN          
  20 A  358  GLY ILE GLN LEU ALA GLN SER ARG TYR TRP GLN THR GLY          
  21 A  358  ASP MET TYR GLN GLY LEU GLY TRP GLU MET LEU ASP TRP          
  22 A  358  PRO VAL ASN PRO ASP SER ILE ILE ASN GLY SER ASP ASN          
  23 A  358  LYS ILE ALA LEU ALA ALA ARG PRO VAL LYS ALA ILE THR          
  24 A  358  PRO PRO THR PRO ALA VAL ARG ALA SER TRP VAL HIS LYS          
  25 A  358  THR GLY ALA THR GLY GLY PHE GLY SER TYR VAL ALA PHE          
  26 A  358  ILE PRO GLU LYS GLU LEU GLY ILE VAL MET LEU ALA ASN          
  27 A  358  LYS ASN TYR PRO ASN PRO ALA ARG VAL ASP ALA ALA TRP          
  28 A  358  GLN ILE LEU ASN ALA LEU GLN                                  
   1 B  358  ALA PRO GLN GLN ILE ASN ASP ILE VAL HIS ARG THR ILE          
   2 B  358  THR PRO LEU ILE GLU GLN GLN LYS ILE PRO GLY MET ALA          
   3 B  358  VAL ALA VAL ILE TYR GLN GLY LYS PRO TYR TYR PHE THR          
   4 B  358  TRP GLY TYR ALA ASP ILE ALA LYS LYS GLN PRO VAL THR          
   5 B  358  GLN GLN THR LEU PHE GLU LEU GLY SER VAL SER LYS THR          
   6 B  358  PHE THR GLY VAL LEU GLY GLY ASP ALA ILE ALA ARG GLY          
   7 B  358  GLU ILE LYS LEU SER ASP PRO THR THR LYS TYR TRP PRO          
   8 B  358  GLU LEU THR ALA LYS GLN TRP ASN GLY ILE THR LEU LEU          
   9 B  358  HIS LEU ALA THR TYR THR ALA GLY GLY LEU PRO LEU GLN          
  10 B  358  VAL PRO ASP GLU VAL LYS SER SER SER ASP LEU LEU ARG          
  11 B  358  PHE TYR GLN ASN TRP GLN PRO ALA TRP ALA PRO GLY THR          
  12 B  358  GLN ARG LEU TYR ALA ASN SER SER ILE GLY LEU PHE GLY          
  13 B  358  ALA LEU ALA VAL LYS PRO SER GLY LEU SER PHE GLU GLN          
  14 B  358  ALA MET GLN THR ARG VAL PHE GLN PRO LEU LYS LEU ASN          
  15 B  358  HIS THR TRP ILE ASN VAL PRO PRO ALA GLU GLU LYS ASN          
  16 B  358  TYR ALA TRP GLY TYR ARG GLU GLY LYS ALA VAL HIS VAL          
  17 B  358  SER PRO GLY ALA LEU ASP ALA GLU ALA TYR GLY VAL LYS          
  18 B  358  SER THR ILE GLU ASP MET ALA ARG TRP VAL GLN SER ASN          
  19 B  358  LEU LYS PRO LEU ASP ILE ASN GLU LYS THR LEU GLN GLN          
  20 B  358  GLY ILE GLN LEU ALA GLN SER ARG TYR TRP GLN THR GLY          
  21 B  358  ASP MET TYR GLN GLY LEU GLY TRP GLU MET LEU ASP TRP          
  22 B  358  PRO VAL ASN PRO ASP SER ILE ILE ASN GLY SER ASP ASN          
  23 B  358  LYS ILE ALA LEU ALA ALA ARG PRO VAL LYS ALA ILE THR          
  24 B  358  PRO PRO THR PRO ALA VAL ARG ALA SER TRP VAL HIS LYS          
  25 B  358  THR GLY ALA THR GLY GLY PHE GLY SER TYR VAL ALA PHE          
  26 B  358  ILE PRO GLU LYS GLU LEU GLY ILE VAL MET LEU ALA ASN          
  27 B  358  LYS ASN TYR PRO ASN PRO ALA ARG VAL ASP ALA ALA TRP          
  28 B  358  GLN ILE LEU ASN ALA LEU GLN                                  

>  <HET>
 PO4  A   1       5                                                       
 BDB  A 364      18                                                       
 BDB  B 364      18                                                       

>  <HETNAM>
     PO4 PHOSPHATE ION                                                    
     BDB 4,4'-BIPHENYLDIBORONIC ACID                                      

>  <FORMUL>
   3  PO4    O4 P 3-                                                      
   4  BDB    2(C12 H12 B2 O4)                                             
   6  HOH   *307(H2 O)                                                    

>  <HELIX>
   1   1 PRO A    5  LYS A   24  1                                  20    
   2   2 VAL A   65  ARG A   80  1                                  16    
   3   3 PRO A   88  TYR A   92  5                                   5    
   4   4 ALA A   98  ASN A  102  5                                   5    
   5   5 THR A  105  TYR A  112  1                                   8    
   6   6 SER A  127  TRP A  138  1                                  12    
   7   7 ALA A  151  LYS A  164  1                                  14    
   8   8 SER A  169  VAL A  178  1                                  10    
   9   9 PRO A  192  TYR A  199  5                                   8    
  10  10 LEU A  216  TYR A  221  1                                   6    
  11  11 THR A  226  LYS A  239  1                                  14    
  12  12 PRO A  240  ILE A  243  5                                   4    
  13  13 GLU A  245  GLN A  256  1                                  12    
  14  14 ASN A  279  ASP A  288  1                                  10    
  15  15 ASP A  288  LEU A  293  1                                   6    
  16  16 PRO A  330  GLU A  333  5                                   4    
  17  17 PRO A  345  LEU A  360  1                                  16    
  18  18 PRO B    5  LYS B   24  1                                  20    
  19  19 VAL B   65  ARG B   80  1                                  16    
  20  20 PRO B   88  TRP B   93  5                                   6    
  21  21 ALA B   98  ASN B  102  5                                   5    
  22  22 THR B  105  THR B  111  1                                   7    
  23  23 SER B  127  TRP B  138  1                                  12    
  24  24 ALA B  151  VAL B  163  1                                  13    
  25  25 SER B  169  VAL B  178  1                                  10    
  26  26 PRO B  192  TYR B  199  5                                   8    
  27  27 LEU B  216  GLY B  222  1                                   7    
  28  28 THR B  226  LYS B  239  1                                  14    
  29  29 PRO B  240  ILE B  243  5                                   4    
  30  30 GLU B  245  GLN B  256  1                                  12    
  31  31 ASN B  279  SER B  287  1                                   9    
  32  32 ASP B  288  LEU B  293  1                                   6    
  33  33 PRO B  330  GLU B  333  5                                   4    
  34  34 PRO B  345  GLN B  361  1                                  17    

>  <SHEET>
   1   A10 GLN A  52  PRO A  53  0                                        
   2   A10 LYS A  37  ASP A  47 -1  N  ASP A  47   O  GLN A  52           
   3   A10 GLY A  27  TYR A  34 -1  N  TYR A  34   O  LYS A  37           
   4   A10 LEU A 334  ALA A 340 -1  O  GLY A 335   N  ILE A  33           
   5   A10 GLY A 323  ILE A 329 -1  N  ILE A 329   O  LEU A 334           
   6   A10 SER A 311  ALA A 318 -1  N  VAL A 313   O  PHE A 328           
   7   A10 GLU A 272  ASP A 275 -1  N  LEU A 274   O  TRP A 312           
   8   A10 MET A 265  GLN A 267 -1  N  TYR A 266   O  MET A 273           
   9   A10 ARG A 258  THR A 262 -1  N  THR A 262   O  MET A 265           
  10   A10 LYS A 299  THR A 305 -1  O  THR A 305   N  ARG A 258           
   1   B 2 PHE A  60  GLU A  61  0                                        
   2   B 2 LYS A 224  SER A 225 -1  O  SER A 225   N  PHE A  60           
   1   C 2 GLN A 147  ARG A 148  0                                        
   2   C 2 ARG A 296  PRO A 297 -1  O  ARG A 296   N  ARG A 148           
   1   D 2 GLY A 202  ARG A 204  0                                        
   2   D 2 LYS A 207  VAL A 209 -1  O  VAL A 209   N  GLY A 202           
   1   E10 GLN B  52  PRO B  53  0                                        
   2   E10 LYS B  37  ASP B  47 -1  N  ASP B  47   O  GLN B  52           
   3   E10 GLY B  27  TYR B  34 -1  N  TYR B  34   O  LYS B  37           
   4   E10 LEU B 334  ALA B 340 -1  O  GLY B 335   N  ILE B  33           
   5   E10 PHE B 322  ILE B 329 -1  N  ILE B 329   O  LEU B 334           
   6   E10 SER B 311  THR B 319 -1  N  GLY B 317   O  SER B 324           
   7   E10 GLU B 272  ASP B 275 -1  N  LEU B 274   O  TRP B 312           
   8   E10 MET B 265  GLN B 267 -1  N  TYR B 266   O  MET B 273           
   9   E10 ARG B 258  THR B 262 -1  N  THR B 262   O  MET B 265           
  10   E10 LYS B 299  THR B 305 -1  O  LYS B 299   N  GLN B 261           
   1   F 2 PHE B  60  GLU B  61  0                                        
   2   F 2 LYS B 224  SER B 225 -1  O  SER B 225   N  PHE B  60           
   1   G 2 GLN B 147  ARG B 148  0                                        
   2   G 2 ARG B 296  PRO B 297 -1  O  ARG B 296   N  ARG B 148           
   1   H 2 GLY B 202  ARG B 204  0                                        
   2   H 2 LYS B 207  VAL B 209 -1  O  VAL B 209   N  GLY B 202           

>  <LINK>
       OG  SER A  64                 B1  BDB A 364     1555   1555  1.65  
       OG  SER B  64                 B1  BDB B 364     1555   1555  1.66  

>  <CISPEP>
   1 TRP A  276    PRO A  277          0         0.14                     
   2 THR A  302    PRO A  303          0        -0.24                     
   3 TRP B  276    PRO B  277          0         0.02                     
   4 THR B  302    PRO B  303          0        -0.22                     

>  <SITE>
   1 AC1  6 ARG A 133  HIS A 186  HOH A 471  HOH A 574                    
   2 AC1  6 HOH A 595  LYS B 290                                          
   1 AC2 10 SER A  64  GLN A 120  ASP A 123  TYR A 150                    
   2 AC2 10 ASN A 152  TYR A 221  GLY A 317  ALA A 318                    
   3 AC2 10 HOH A 402  HOH A 593                                          
   1 AC3 10 SER B  64  GLN B 120  ASP B 123  TYR B 150                    
   2 AC3 10 ASN B 152  TYR B 221  GLY B 317  ALA B 318                    
   3 AC3 10 HOH B 400  HOH B 581                                          

>  <ORIGX1>
      1.000000  0.000000  0.000000        0.00000                         

>  <ORIGX2>
      0.000000  1.000000  0.000000        0.00000                         

>  <ORIGX3>
      0.000000  0.000000  1.000000        0.00000                         

>  <SCALE1>
      0.008489  0.000000  0.004128        0.00000                         

>  <SCALE2>
      0.000000  0.012762  0.000000        0.00000                         

>  <SCALE3>
      0.000000  0.000000  0.011419        0.00000                         

>  <MASTER>
      298    0    3   34   32    0    8    6 5886    2   43   56          

$$$$
