start_structures/Ligand_Substrate/Ligand_Complex_Stripped/BHU_6J8Q.pdb
 OpenBabel08222315203D

 17 16  0  0  1  0  0  0  0  0999 V2000
  125.3940  -56.6190  125.2880 N   0  0  0  0  0  0  0  0  0  0  0  0
  126.5910  -56.5340  124.4430 C   0  0  2  0  0  0  0  0  0  0  0  0
  126.7560  -55.2070  123.7230 C   0  0  0  0  0  0  0  0  0  0  0  0
  127.7810  -55.0220  123.0460 O   0  0  0  0  0  0  0  0  0  0  0  0
  126.5950  -57.6460  123.3990 C   0  0  0  0  0  0  0  0  0  0  0  0
  126.8800  -58.8920  123.9970 O   0  0  0  0  0  0  0  0  0  0  0  0
  126.2050  -61.2000  124.8050 C   0  0  0  0  0  0  0  0  0  0  0  0
  125.1250  -61.9690  125.3690 N   0  0  0  0  0  0  0  0  0  0  0  0
  125.2590  -63.3640  125.7170 C   0  0  0  0  0  0  0  0  0  0  0  0
  126.2910  -63.9490  125.5500 O   0  0  0  0  0  0  0  0  0  0  0  0
  124.0000  -63.9820  126.3340 C   0  0  1  0  0  0  0  0  0  0  0  0
  123.4400  -65.1260  125.5070 C   0  0  0  0  0  0  0  0  0  0  0  0
  122.6790  -64.4570  123.9850 S   0  0  0  0  0  0  0  0  0  0  0  0
  124.3560  -64.3900  127.7580 C   0  0  0  0  0  0  0  0  0  0  0  0
  125.8250  -59.7010  125.1730 B   0  0  0  0  0  0  0  0  0  0  0  0
  126.3350  -59.1520  126.3220 O   0  0  0  0  0  0  0  0  0  0  0  0
  124.6500  -59.2140  124.6980 O   0  0  0  0  0  0  0  0  0  0  0  0
  2  1  1  6  0  0  0
  3  2  1  0  0  0  0
  4  3  2  0  0  0  0
  5  6  1  0  0  0  0
  5  2  1  0  0  0  0
  6 15  1  0  0  0  0
  7  8  1  0  0  0  0
  7 15  1  0  0  0  0
  8  9  1  0  0  0  0
  9 10  2  0  0  0  0
  9 11  1  0  0  0  0
 11 12  1  0  0  0  0
 11 14  1  1  0  0  0
 12 13  1  0  0  0  0
 15 16  1  0  0  0  0
 15 17  1  0  0  0  0
M  END
>  <HEADER>
    HYDROLASE                               21-JAN-19   6J8Q              

>  <TITLE>
    SERINE BETA-LACTAMASE KPC-2 IN COMPLEX WITH DUAL MBL/SBL INHIBITOR WL-
   2 001                                                                  

>  <COMPND>
    MOL_ID: 1;                                                            
   2 MOLECULE: SERINE BETA-LACTAMASE KPC-2;                               
   3 CHAIN: A, B, C, D;                                                   
   4 SYNONYM: BETA-LACTAMASE;                                             
   5 EC: 3.5.2.6;                                                         
   6 ENGINEERED: YES                                                      

>  <SOURCE>
    MOL_ID: 1;                                                            
   2 ORGANISM_SCIENTIFIC: KLEBSIELLA PNEUMONIAE;                          
   3 ORGANISM_TAXID: 573;                                                 
   4 GENE: BLAKPC2;                                                       
   5 EXPRESSION_SYSTEM: ESCHERICHIA COLI BL21(DE3);                       
   6 EXPRESSION_SYSTEM_TAXID: 469008                                      

>  <KEYWDS>
    BETA-LACTAMASE, SERINE-BETA-LACTAMASE KPC-2, KPC-2, CARBAPENEMASE,    
   2 HYDROLASE                                                            

>  <EXPDTA>
    X-RAY DIFFRACTION                                                     

>  <AUTHOR>
    G.-B.LI,S.LIU                                                         

>  <REVDAT>
   2   21-AUG-19 6J8Q    1       JRNL                                     
   1   17-JUL-19 6J8Q    0                                                

>  <JRNL>
      AUTH   Y.L.WANG,S.LIU,Z.J.YU,Y.LEI,M.Y.HUANG,Y.H.YAN,Q.MA,Y.ZHENG,  
      AUTH 2 H.DENG,Y.SUN,C.WU,Y.YU,Q.CHEN,Z.WANG,Y.WU,G.B.LI             
      TITL   STRUCTURE-BASED DEVELOPMENT OF                               
      TITL 2 (1-(3'-MERCAPTOPROPANAMIDO)METHYL)BORONIC ACID DERIVED       
      TITL 3 BROAD-SPECTRUM, DUAL-ACTION INHIBITORS OF METALLO- AND       
      TITL 4 SERINE-BETA-LACTAMASES.                                      
      REF    J.MED.CHEM.                   V.  62  7160 2019              
      REFN                   ISSN 0022-2623                               
      PMID   31269398                                                     
      DOI    10.1021/ACS.JMEDCHEM.9B00735                                 

>  <REMARK>
   2                                                                      
   2 RESOLUTION.    1.79 ANGSTROMS.                                       
   3                                                                      
   3 REFINEMENT.                                                          
   3   PROGRAM     : PHENIX 1.10.1_2155                                   
   3   AUTHORS     : PAUL ADAMS,PAVEL AFONINE,VINCENT CHEN,IAN            
   3               : DAVIS,KRESHNA GOPAL,RALF GROSSE-KUNSTLEVE,           
   3               : LI-WEI HUNG,ROBERT IMMORMINO,TOM IOERGER,            
   3               : AIRLIE MCCOY,ERIK MCKEE,NIGEL MORIARTY,              
   3               : REETAL PAI,RANDY READ,JANE RICHARDSON,               
   3               : DAVID RICHARDSON,TOD ROMO,JIM SACCHETTINI,           
   3               : NICHOLAS SAUTER,JACOB SMITH,LAURENT                  
   3               : STORONI,TOM TERWILLIGER,PETER ZWART                  
   3                                                                      
   3    REFINEMENT TARGET : NULL                                          
   3                                                                      
   3  DATA USED IN REFINEMENT.                                            
   3   RESOLUTION RANGE HIGH (ANGSTROMS) : 1.79                           
   3   RESOLUTION RANGE LOW  (ANGSTROMS) : 47.68                          
   3   MIN(FOBS/SIGMA_FOBS)              : 1.340                          
   3   COMPLETENESS FOR RANGE        (%) : 77.0                           
   3   NUMBER OF REFLECTIONS             : 108182                         
   3                                                                      
   3  FIT TO DATA USED IN REFINEMENT.                                     
   3   R VALUE     (WORKING + TEST SET) : 0.171                           
   3   R VALUE            (WORKING SET) : 0.170                           
   3   FREE R VALUE                     : 0.205                           
   3   FREE R VALUE TEST SET SIZE   (%) : 1.830                           
   3   FREE R VALUE TEST SET COUNT      : 1983                            
   3                                                                      
   3  FIT TO DATA USED IN REFINEMENT (IN BINS).                           
   3   BIN  RESOLUTION RANGE  COMPL.    NWORK NFREE   RWORK  RFREE        
   3     1 47.6942 -  4.3063    0.99    10074   184  0.1602 0.1827        
   3     2  4.3063 -  3.4183    1.00     9921   192  0.1420 0.1687        
   3     3  3.4183 -  2.9863    0.99     9764   183  0.1691 0.1860        
   3     4  2.9863 -  2.7133    0.99     9803   187  0.1675 0.2376        
   3     5  2.7133 -  2.5188    0.99     9760   179  0.1592 0.1794        
   3     6  2.5188 -  2.3703    0.99     9669   180  0.1662 0.1982        
   3     7  2.3703 -  2.2516    0.99     9720   182  0.1758 0.2360        
   3     8  2.2516 -  2.1536    0.99     9650   184  0.1865 0.2382        
   3     9  2.1536 -  2.0707    0.97     9509   181  0.2075 0.2542        
   3    10  2.0707 -  1.9992    0.81     8021   141  0.2337 0.2876        
   3    11  1.9992 -  1.9367    0.56     5512   101  0.2516 0.3178        
   3    12  1.9367 -  1.8814    0.29     2861    53  0.2572 0.3736        
   3    13  1.8814 -  1.8318    0.15     1469    29  0.2691 0.3154        
   3    14  1.8318 -  1.7871    0.05      466     7  0.2730 0.2753        
   3                                                                      
   3  BULK SOLVENT MODELLING.                                             
   3   METHOD USED        : NULL                                          
   3   SOLVENT RADIUS     : 1.11                                          
   3   SHRINKAGE RADIUS   : 0.90                                          
   3   K_SOL              : NULL                                          
   3   B_SOL              : NULL                                          
   3                                                                      
   3  ERROR ESTIMATES.                                                    
   3   COORDINATE ERROR (MAXIMUM-LIKELIHOOD BASED)     : 0.140            
   3   PHASE ERROR (DEGREES, MAXIMUM-LIKELIHOOD BASED) : 22.500           
   3                                                                      
   3  B VALUES.                                                           
   3   FROM WILSON PLOT           (A**2) : 21.49                          
   3   MEAN B VALUE      (OVERALL, A**2) : 23.33                          
   3   OVERALL ANISOTROPIC B VALUE.                                       
   3    B11 (A**2) : NULL                                                 
   3    B22 (A**2) : NULL                                                 
   3    B33 (A**2) : NULL                                                 
   3    B12 (A**2) : NULL                                                 
   3    B13 (A**2) : NULL                                                 
   3    B23 (A**2) : NULL                                                 
   3                                                                      
   3  TWINNING INFORMATION.                                               
   3   FRACTION: NULL                                                     
   3   OPERATOR: NULL                                                     
   3                                                                      
   3  DEVIATIONS FROM IDEAL VALUES.                                       
   3                 RMSD          COUNT                                  
   3   BOND      :  0.011           8165                                  
   3   ANGLE     :  1.152          11064                                  
   3   CHIRALITY :  0.064           1244                                  
   3   PLANARITY :  0.007           1437                                  
   3   DIHEDRAL  : 16.142           4824                                  
   3                                                                      
   3  TLS DETAILS                                                         
   3   NUMBER OF TLS GROUPS  : NULL                                       
   3                                                                      
   3  NCS DETAILS                                                         
   3   NUMBER OF NCS GROUPS : NULL                                        
   3                                                                      
   3  OTHER REFINEMENT REMARKS: NULL                                      
   4                                                                      
   4 6J8Q COMPLIES WITH FORMAT V. 3.30, 13-JUL-11                         
 100                                                                      
 100 THIS ENTRY HAS BEEN PROCESSED BY PDBJ ON 01-FEB-19.                  
 100 THE DEPOSITION ID IS D_1300010643.                                   
 200                                                                      
 200 EXPERIMENTAL DETAILS                                                 
 200  EXPERIMENT TYPE                : X-RAY DIFFRACTION                  
 200  DATE OF DATA COLLECTION        : 01-JUN-18                          
 200  TEMPERATURE           (KELVIN) : 195                                
 200  PH                             : 4.5                                
 200  NUMBER OF CRYSTALS USED        : 1                                  
 200                                                                      
 200  SYNCHROTRON              (Y/N) : Y                                  
 200  RADIATION SOURCE               : SSRF                               
 200  BEAMLINE                       : BL19U1                             
 200  X-RAY GENERATOR MODEL          : NULL                               
 200  MONOCHROMATIC OR LAUE    (M/L) : M                                  
 200  WAVELENGTH OR RANGE        (A) : 0.97918                            
 200  MONOCHROMATOR                  : NULL                               
 200  OPTICS                         : NULL                               
 200                                                                      
 200  DETECTOR TYPE                  : PIXEL                              
 200  DETECTOR MANUFACTURER          : DECTRIS PILATUS3 X CDTE 1M         
 200  INTENSITY-INTEGRATION SOFTWARE : HKL-2000                           
 200  DATA SCALING SOFTWARE          : SCALEPACK                          
 200                                                                      
 200  NUMBER OF UNIQUE REFLECTIONS   : 136404                             
 200  RESOLUTION RANGE HIGH      (A) : 1.780                              
 200  RESOLUTION RANGE LOW       (A) : 50.000                             
 200  REJECTION CRITERIA  (SIGMA(I)) : NULL                               
 200                                                                      
 200 OVERALL.                                                             
 200  COMPLETENESS FOR RANGE     (%) : 97.0                               
 200  DATA REDUNDANCY                : 16.50                              
 200  R MERGE                    (I) : 0.22200                            
 200  R SYM                      (I) : NULL                               
 200  <I/SIGMA(I)> FOR THE DATA SET  : 3.1000                             
 200                                                                      
 200 IN THE HIGHEST RESOLUTION SHELL.                                     
 200  HIGHEST RESOLUTION SHELL, RANGE HIGH (A) : 1.78                     
 200  HIGHEST RESOLUTION SHELL, RANGE LOW  (A) : 1.84                     
 200  COMPLETENESS FOR SHELL     (%) : 83.4                               
 200  DATA REDUNDANCY IN SHELL       : 5.70                               
 200  R MERGE FOR SHELL          (I) : 0.91900                            
 200  R SYM FOR SHELL            (I) : NULL                               
 200  <I/SIGMA(I)> FOR SHELL         : NULL                               
 200                                                                      
 200 DIFFRACTION PROTOCOL: SINGLE WAVELENGTH                              
 200 METHOD USED TO DETERMINE THE STRUCTURE: MOLECULAR REPLACEMENT        
 200 SOFTWARE USED: PHASER 2.6.0                                          
 200 STARTING MODEL: 3RXW                                                 
 200                                                                      
 200 REMARK: NULL                                                         
 280                                                                      
 280 CRYSTAL                                                              
 280 SOLVENT CONTENT, VS   (%): 63.04                                     
 280 MATTHEWS COEFFICIENT, VM (ANGSTROMS**3/DA): 3.33                     
 280                                                                      
 280 CRYSTALLIZATION CONDITIONS: 32% TO 35% PEG 8000, 0.1M LITHIUM        
 280  SULPHATE, 0.05M SODIUM ACETATE (PH 4.5), VAPOR DIFFUSION,           
 280  HANGING DROP, TEMPERATURE 293K                                      
 290                                                                      
 290 CRYSTALLOGRAPHIC SYMMETRY                                            
 290 SYMMETRY OPERATORS FOR SPACE GROUP: P 3 2 1                          
 290                                                                      
 290      SYMOP   SYMMETRY                                                
 290     NNNMMM   OPERATOR                                                
 290       1555   X,Y,Z                                                   
 290       2555   -Y,X-Y,Z                                                
 290       3555   -X+Y,-X,Z                                               
 290       4555   Y,X,-Z                                                  
 290       5555   X-Y,-Y,-Z                                               
 290       6555   -X,-X+Y,-Z                                              
 290                                                                      
 290     WHERE NNN -> OPERATOR NUMBER                                     
 290           MMM -> TRANSLATION VECTOR                                  
 290                                                                      
 290 CRYSTALLOGRAPHIC SYMMETRY TRANSFORMATIONS                            
 290 THE FOLLOWING TRANSFORMATIONS OPERATE ON THE ATOM/HETATM             
 290 RECORDS IN THIS ENTRY TO PRODUCE CRYSTALLOGRAPHICALLY                
 290 RELATED MOLECULES.                                                   
 290   SMTRY1   1  1.000000  0.000000  0.000000        0.00000            
 290   SMTRY2   1  0.000000  1.000000  0.000000        0.00000            
 290   SMTRY3   1  0.000000  0.000000  1.000000        0.00000            
 290   SMTRY1   2 -0.500000 -0.866025  0.000000        0.00000            
 290   SMTRY2   2  0.866025 -0.500000  0.000000        0.00000            
 290   SMTRY3   2  0.000000  0.000000  1.000000        0.00000            
 290   SMTRY1   3 -0.500000  0.866025  0.000000        0.00000            
 290   SMTRY2   3 -0.866025 -0.500000  0.000000        0.00000            
 290   SMTRY3   3  0.000000  0.000000  1.000000        0.00000            
 290   SMTRY1   4 -0.500000  0.866025  0.000000        0.00000            
 290   SMTRY2   4  0.866025  0.500000  0.000000        0.00000            
 290   SMTRY3   4  0.000000  0.000000 -1.000000        0.00000            
 290   SMTRY1   5  1.000000  0.000000  0.000000        0.00000            
 290   SMTRY2   5  0.000000 -1.000000  0.000000        0.00000            
 290   SMTRY3   5  0.000000  0.000000 -1.000000        0.00000            
 290   SMTRY1   6 -0.500000 -0.866025  0.000000        0.00000            
 290   SMTRY2   6 -0.866025  0.500000  0.000000        0.00000            
 290   SMTRY3   6  0.000000  0.000000 -1.000000        0.00000            
 290                                                                      
 290 REMARK: NULL                                                         
 300                                                                      
 300 BIOMOLECULE: 1, 2, 3, 4                                              
 300 SEE REMARK 350 FOR THE AUTHOR PROVIDED AND/OR PROGRAM                
 300 GENERATED ASSEMBLY INFORMATION FOR THE STRUCTURE IN                  
 300 THIS ENTRY. THE REMARK MAY ALSO PROVIDE INFORMATION ON               
 300 BURIED SURFACE AREA.                                                 
 350                                                                      
 350 COORDINATES FOR A COMPLETE MULTIMER REPRESENTING THE KNOWN           
 350 BIOLOGICALLY SIGNIFICANT OLIGOMERIZATION STATE OF THE                
 350 MOLECULE CAN BE GENERATED BY APPLYING BIOMT TRANSFORMATIONS          
 350 GIVEN BELOW.  BOTH NON-CRYSTALLOGRAPHIC AND                          
 350 CRYSTALLOGRAPHIC OPERATIONS ARE GIVEN.                               
 350                                                                      
 350 BIOMOLECULE: 1                                                       
 350 AUTHOR DETERMINED BIOLOGICAL UNIT: MONOMERIC                         
 350 SOFTWARE DETERMINED QUATERNARY STRUCTURE: MONOMERIC                  
 350 SOFTWARE USED: PISA                                                  
 350 TOTAL BURIED SURFACE AREA: 0 ANGSTROM**2                             
 350 SURFACE AREA OF THE COMPLEX: 10900 ANGSTROM**2                       
 350 CHANGE IN SOLVENT FREE ENERGY: 0.0 KCAL/MOL                          
 350 APPLY THE FOLLOWING TO CHAINS: A                                     
 350   BIOMT1   1  1.000000  0.000000  0.000000        0.00000            
 350   BIOMT2   1  0.000000  1.000000  0.000000        0.00000            
 350   BIOMT3   1  0.000000  0.000000  1.000000        0.00000            
 350                                                                      
 350 BIOMOLECULE: 2                                                       
 350 AUTHOR DETERMINED BIOLOGICAL UNIT: MONOMERIC                         
 350 SOFTWARE DETERMINED QUATERNARY STRUCTURE: MONOMERIC                  
 350 SOFTWARE USED: PISA                                                  
 350 TOTAL BURIED SURFACE AREA: 0 ANGSTROM**2                             
 350 SURFACE AREA OF THE COMPLEX: 10760 ANGSTROM**2                       
 350 CHANGE IN SOLVENT FREE ENERGY: 0.0 KCAL/MOL                          
 350 APPLY THE FOLLOWING TO CHAINS: B                                     
 350   BIOMT1   1  1.000000  0.000000  0.000000        0.00000            
 350   BIOMT2   1  0.000000  1.000000  0.000000        0.00000            
 350   BIOMT3   1  0.000000  0.000000  1.000000        0.00000            
 350                                                                      
 350 BIOMOLECULE: 3                                                       
 350 AUTHOR DETERMINED BIOLOGICAL UNIT: MONOMERIC                         
 350 SOFTWARE DETERMINED QUATERNARY STRUCTURE: MONOMERIC                  
 350 SOFTWARE USED: PISA                                                  
 350 TOTAL BURIED SURFACE AREA: 150 ANGSTROM**2                           
 350 SURFACE AREA OF THE COMPLEX: 10950 ANGSTROM**2                       
 350 CHANGE IN SOLVENT FREE ENERGY: -11.0 KCAL/MOL                        
 350 APPLY THE FOLLOWING TO CHAINS: C                                     
 350   BIOMT1   1  1.000000  0.000000  0.000000        0.00000            
 350   BIOMT2   1  0.000000  1.000000  0.000000        0.00000            
 350   BIOMT3   1  0.000000  0.000000  1.000000        0.00000            
 350                                                                      
 350 BIOMOLECULE: 4                                                       
 350 AUTHOR DETERMINED BIOLOGICAL UNIT: MONOMERIC                         
 350 SOFTWARE DETERMINED QUATERNARY STRUCTURE: MONOMERIC                  
 350 SOFTWARE USED: PISA                                                  
 350 TOTAL BURIED SURFACE AREA: 0 ANGSTROM**2                             
 350 SURFACE AREA OF THE COMPLEX: 10200 ANGSTROM**2                       
 350 CHANGE IN SOLVENT FREE ENERGY: 0.0 KCAL/MOL                          
 350 APPLY THE FOLLOWING TO CHAINS: D                                     
 350   BIOMT1   1  1.000000  0.000000  0.000000        0.00000            
 350   BIOMT2   1  0.000000  1.000000  0.000000        0.00000            
 350   BIOMT3   1  0.000000  0.000000  1.000000        0.00000            
 465                                                                      
 465 MISSING RESIDUES                                                     
 465 THE FOLLOWING RESIDUES WERE NOT LOCATED IN THE                       
 465 EXPERIMENT. (M=MODEL NUMBER; RES=RESIDUE NAME; C=CHAIN               
 465 IDENTIFIER; SSSEQ=SEQUENCE NUMBER; I=INSERTION CODE.)                
 465                                                                      
 465   M RES C SSSEQI                                                     
 465     SER B    25                                                      
 465     THR B    26                                                      
 465     SER D    25                                                      
 465     THR D    26                                                      
 465     ASN D    27                                                      
 465     LEU D    28                                                      
 465     VAL D    29                                                      
 465     ALA D    30                                                      
 470                                                                      
 470 MISSING ATOM                                                         
 470 THE FOLLOWING RESIDUES HAVE MISSING ATOMS (M=MODEL NUMBER;           
 470 RES=RESIDUE NAME; C=CHAIN IDENTIFIER; SSEQ=SEQUENCE NUMBER;          
 470 I=INSERTION CODE):                                                   
 470   M RES CSSEQI  ATOMS                                                
 470     SER A  25    OG                                                  
 470     GLY A 291    CA   C    O                                         
 470     GLY B 291    CA   C    O                                         
 470     GLY C 291    CA   C    O                                         
 470     LYS D  35    CG   CD   CE   NZ                                   
 470     GLY D 291    CA   C    O                                         
 500                                                                      
 500 GEOMETRY AND STEREOCHEMISTRY                                         
 500 SUBTOPIC: CLOSE CONTACTS IN SAME ASYMMETRIC UNIT                     
 500                                                                      
 500 THE FOLLOWING ATOMS ARE IN CLOSE CONTACT.                            
 500                                                                      
 500  ATM1  RES C  SSEQI   ATM2  RES C  SSEQI           DISTANCE          
 500   O4   PEG B   303     O    HOH B   401              1.73            
 500   OG   SER B    70     B9   BHU B   301              1.74            
 500   OG   SER C    70     B9   BHU C   301              1.75            
 500   OG   SER A    70     B9   BHU A   301              1.77            
 500   OG   SER D    70     B9   BHU D   301              1.80            
 500   O1   PEG B   302     O    HOH B   401              1.82            
 500   O    HOH D   523     O    HOH D   550              1.89            
 500   O    HOH D   554     O    HOH D   555              1.91            
 500   O    HOH A   625     O    HOH A   627              1.93            
 500   O    HOH C   536     O    HOH C   544              1.96            
 500   O    HOH B   408     O    HOH B   517              1.97            
 500   O    HOH B   561     O    HOH B   575              1.99            
 500   O    HOH A   592     O    HOH A   615              1.99            
 500   O    HOH D   519     O    HOH D   541              2.00            
 500   O    HOH B   580     O    HOH B   628              2.01            
 500   O    HOH B   424     O    HOH B   527              2.01            
 500   O    ALA B   224     O    HOH B   402              2.02            
 500   O    HOH A   524     O    HOH C   515              2.03            
 500   O    HOH B   585     O    HOH B   632              2.03            
 500   O    HOH C   413     O    HOH C   514              2.07            
 500   O    HOH B   561     O    HOH B   567              2.08            
 500   O    HOH B   576     O    HOH B   630              2.08            
 500   O    THR D   254     O    HOH D   401              2.08            
 500   O    VAL B   225     O    HOH B   403              2.09            
 500   O    HOH A   541     O    HOH A   594              2.09            
 500   OE2  GLU A   110     O    HOH A   401              2.10            
 500   O    HOH A   550     O    HOH A   562              2.11            
 500   O    HOH C   531     O    HOH C   542              2.11            
 500   O    HOH D   537     O    HOH D   572              2.11            
 500   OE1  GLU D   168     O    HOH D   402              2.13            
 500   O    HOH A   579     O    HOH A   608              2.13            
 500   O    HOH C   478     O    HOH C   541              2.14            
 500   O    HOH A   424     O    HOH A   533              2.15            
 500   O    HOH A   593     O    HOH A   639              2.15            
 500   O2   PEG B   303     O    HOH B   404              2.16            
 500   O    HOH A   577     O    HOH B   578              2.16            
 500   O    LEU B   290     O    HOH B   405              2.16            
 500   O    HOH A   513     O    HOH A   548              2.17            
 500   O    HOH A   606     O    HOH A   628              2.17            
 500   O    HOH A   580     O    HOH A   618              2.17            
 500                                                                      
 500 REMARK: NULL                                                         
 500                                                                      
 500 GEOMETRY AND STEREOCHEMISTRY                                         
 500 SUBTOPIC: CLOSE CONTACTS                                             
 500                                                                      
 500 THE FOLLOWING ATOMS THAT ARE RELATED BY CRYSTALLOGRAPHIC             
 500 SYMMETRY ARE IN CLOSE CONTACT.  AN ATOM LOCATED WITHIN 0.15          
 500 ANGSTROMS OF A SYMMETRY RELATED ATOM IS ASSUMED TO BE ON A           
 500 SPECIAL POSITION AND IS, THEREFORE, LISTED IN REMARK 375             
 500 INSTEAD OF REMARK 500.  ATOMS WITH NON-BLANK ALTERNATE               
 500 LOCATION INDICATORS ARE NOT INCLUDED IN THE CALCULATIONS.            
 500                                                                      
 500 DISTANCE CUTOFF:                                                     
 500 2.2 ANGSTROMS FOR CONTACTS NOT INVOLVING HYDROGEN ATOMS              
 500 1.6 ANGSTROMS FOR CONTACTS INVOLVING HYDROGEN ATOMS                  
 500                                                                      
 500  ATM1  RES C  SSEQI   ATM2  RES C  SSEQI  SSYMOP   DISTANCE          
 500   O    HOH B   587     O    HOH B   587     2545     1.92            
 500   O    HOH A   417     O    HOH D   474     4647     2.07            
 500   O    HOH B   512     O    HOH B   618     3655     2.14            
 500   O    HOH B   406     O    HOH B   513     3655     2.15            
 500                                                                      
 500 REMARK: NULL                                                         
 500                                                                      
 500 GEOMETRY AND STEREOCHEMISTRY                                         
 500 SUBTOPIC: COVALENT BOND LENGTHS                                      
 500                                                                      
 500 THE STEREOCHEMICAL PARAMETERS OF THE FOLLOWING RESIDUES              
 500 HAVE VALUES WHICH DEVIATE FROM EXPECTED VALUES BY MORE               
 500 THAN 6*RMSD (M=MODEL NUMBER; RES=RESIDUE NAME; C=CHAIN               
 500 IDENTIFIER; SSEQ=SEQUENCE NUMBER; I=INSERTION CODE).                 
 500                                                                      
 500 STANDARD TABLE:                                                      
 500 FORMAT: (10X,I3,1X,2(A3,1X,A1,I4,A1,1X,A4,3X),1X,F6.3)               
 500                                                                      
 500 EXPECTED VALUES PROTEIN: ENGH AND HUBER, 1999                        
 500 EXPECTED VALUES NUCLEIC ACID: CLOWNEY ET AL 1996                     
 500                                                                      
 500  M RES CSSEQI ATM1   RES CSSEQI ATM2   DEVIATION                     
 500    SER C  25   CB    SER C  25   OG      0.116                       
 500                                                                      
 500 REMARK: NULL                                                         
 500                                                                      
 500 GEOMETRY AND STEREOCHEMISTRY                                         
 500 SUBTOPIC: COVALENT BOND ANGLES                                       
 500                                                                      
 500 THE STEREOCHEMICAL PARAMETERS OF THE FOLLOWING RESIDUES              
 500 HAVE VALUES WHICH DEVIATE FROM EXPECTED VALUES BY MORE               
 500 THAN 6*RMSD (M=MODEL NUMBER; RES=RESIDUE NAME; C=CHAIN               
 500 IDENTIFIER; SSEQ=SEQUENCE NUMBER; I=INSERTION CODE).                 
 500                                                                      
 500 STANDARD TABLE:                                                      
 500 FORMAT: (10X,I3,1X,A3,1X,A1,I4,A1,3(1X,A4,2X),12X,F5.1)              
 500                                                                      
 500 EXPECTED VALUES PROTEIN: ENGH AND HUBER, 1999                        
 500 EXPECTED VALUES NUCLEIC ACID: CLOWNEY ET AL 1996                     
 500                                                                      
 500  M RES CSSEQI ATM1   ATM2   ATM3                                     
 500    ARG A 266   NE  -  CZ  -  NH1 ANGL. DEV. =   3.2 DEGREES          
 500    ARG A 266   NE  -  CZ  -  NH2 ANGL. DEV. =  -3.8 DEGREES          
 500    ARG B 204   NE  -  CZ  -  NH2 ANGL. DEV. =  -3.1 DEGREES          
 500                                                                      
 500 REMARK: NULL                                                         
 500                                                                      
 500 GEOMETRY AND STEREOCHEMISTRY                                         
 500 SUBTOPIC: TORSION ANGLES                                             
 500                                                                      
 500 TORSION ANGLES OUTSIDE THE EXPECTED RAMACHANDRAN REGIONS:            
 500 (M=MODEL NUMBER; RES=RESIDUE NAME; C=CHAIN IDENTIFIER;               
 500 SSEQ=SEQUENCE NUMBER; I=INSERTION CODE).                             
 500                                                                      
 500 STANDARD TABLE:                                                      
 500 FORMAT:(10X,I3,1X,A3,1X,A1,I4,A1,4X,F7.2,3X,F7.2)                    
 500                                                                      
 500 EXPECTED VALUES: GJ KLEYWEGT AND TA JONES (1996). PHI/PSI-           
 500 CHOLOGY: RAMACHANDRAN REVISITED. STRUCTURE 4, 1395 - 1400            
 500                                                                      
 500  M RES CSSEQI        PSI       PHI                                   
 500    ASN A  27      108.85   -164.83                                   
 500    CYS A  69     -143.28     49.65                                   
 500    TRP A 105       72.99     56.15                                   
 500    ARG A 220     -119.78   -113.87                                   
 500    CYS B  69     -142.47     52.30                                   
 500    ARG B 220     -122.91   -112.18                                   
 500    VAL C  29       -8.54   -154.33                                   
 500    CYS C  69     -143.55     47.09                                   
 500    TRP C 105       73.08     52.09                                   
 500    ARG C 220     -121.09   -115.20                                   
 500    THR C 254       51.26   -157.40                                   
 500    CYS D  69     -146.06     52.84                                   
 500    TRP D 105       73.60     49.55                                   
 500    ARG D 220     -121.68   -113.52                                   
 500                                                                      
 500 REMARK: NULL                                                         
 800                                                                      
 800 SITE                                                                 
 800 SITE_IDENTIFIER: AC1                                                 
 800 EVIDENCE_CODE: SOFTWARE                                              
 800 SITE_DESCRIPTION: binding site for residue BHU A 301                 
 800                                                                      
 800 SITE_IDENTIFIER: AC2                                                 
 800 EVIDENCE_CODE: SOFTWARE                                              
 800 SITE_DESCRIPTION: binding site for residue PEG A 302                 
 800                                                                      
 800 SITE_IDENTIFIER: AC3                                                 
 800 EVIDENCE_CODE: SOFTWARE                                              
 800 SITE_DESCRIPTION: binding site for residue PEG A 303                 
 800                                                                      
 800 SITE_IDENTIFIER: AC4                                                 
 800 EVIDENCE_CODE: SOFTWARE                                              
 800 SITE_DESCRIPTION: binding site for residue PEG A 304                 
 800                                                                      
 800 SITE_IDENTIFIER: AC5                                                 
 800 EVIDENCE_CODE: SOFTWARE                                              
 800 SITE_DESCRIPTION: binding site for residue PEG A 305                 
 800                                                                      
 800 SITE_IDENTIFIER: AC6                                                 
 800 EVIDENCE_CODE: SOFTWARE                                              
 800 SITE_DESCRIPTION: binding site for residue PEG A 306                 
 800                                                                      
 800 SITE_IDENTIFIER: AC7                                                 
 800 EVIDENCE_CODE: SOFTWARE                                              
 800 SITE_DESCRIPTION: binding site for residue PEG A 307                 
 800                                                                      
 800 SITE_IDENTIFIER: AC8                                                 
 800 EVIDENCE_CODE: SOFTWARE                                              
 800 SITE_DESCRIPTION: binding site for residue PEG A 308                 
 800                                                                      
 800 SITE_IDENTIFIER: AC9                                                 
 800 EVIDENCE_CODE: SOFTWARE                                              
 800 SITE_DESCRIPTION: binding site for residue ACY A 309                 
 800                                                                      
 800 SITE_IDENTIFIER: AD1                                                 
 800 EVIDENCE_CODE: SOFTWARE                                              
 800 SITE_DESCRIPTION: binding site for residue ACY A 310                 
 800                                                                      
 800 SITE_IDENTIFIER: AD2                                                 
 800 EVIDENCE_CODE: SOFTWARE                                              
 800 SITE_DESCRIPTION: binding site for residue BHU B 301                 
 800                                                                      
 800 SITE_IDENTIFIER: AD3                                                 
 800 EVIDENCE_CODE: SOFTWARE                                              
 800 SITE_DESCRIPTION: binding site for residue PEG B 302                 
 800                                                                      
 800 SITE_IDENTIFIER: AD4                                                 
 800 EVIDENCE_CODE: SOFTWARE                                              
 800 SITE_DESCRIPTION: binding site for residue PEG B 303                 
 800                                                                      
 800 SITE_IDENTIFIER: AD5                                                 
 800 EVIDENCE_CODE: SOFTWARE                                              
 800 SITE_DESCRIPTION: binding site for residue PEG B 304                 
 800                                                                      
 800 SITE_IDENTIFIER: AD6                                                 
 800 EVIDENCE_CODE: SOFTWARE                                              
 800 SITE_DESCRIPTION: binding site for residue PEG B 305                 
 800                                                                      
 800 SITE_IDENTIFIER: AD7                                                 
 800 EVIDENCE_CODE: SOFTWARE                                              
 800 SITE_DESCRIPTION: binding site for residue ACY B 306                 
 800                                                                      
 800 SITE_IDENTIFIER: AD8                                                 
 800 EVIDENCE_CODE: SOFTWARE                                              
 800 SITE_DESCRIPTION: binding site for residue ACY B 307                 
 800                                                                      
 800 SITE_IDENTIFIER: AD9                                                 
 800 EVIDENCE_CODE: SOFTWARE                                              
 800 SITE_DESCRIPTION: binding site for residue BHU C 301                 
 800                                                                      
 800 SITE_IDENTIFIER: AE1                                                 
 800 EVIDENCE_CODE: SOFTWARE                                              
 800 SITE_DESCRIPTION: binding site for residue PEG C 302                 
 800                                                                      
 800 SITE_IDENTIFIER: AE2                                                 
 800 EVIDENCE_CODE: SOFTWARE                                              
 800 SITE_DESCRIPTION: binding site for residue PEG C 303                 
 800                                                                      
 800 SITE_IDENTIFIER: AE3                                                 
 800 EVIDENCE_CODE: SOFTWARE                                              
 800 SITE_DESCRIPTION: binding site for residue SO4 C 304                 
 800                                                                      
 800 SITE_IDENTIFIER: AE4                                                 
 800 EVIDENCE_CODE: SOFTWARE                                              
 800 SITE_DESCRIPTION: binding site for residue ACY C 305                 
 800                                                                      
 800 SITE_IDENTIFIER: AE5                                                 
 800 EVIDENCE_CODE: SOFTWARE                                              
 800 SITE_DESCRIPTION: binding site for residue BHU D 301                 
 800                                                                      
 800 SITE_IDENTIFIER: AE6                                                 
 800 EVIDENCE_CODE: SOFTWARE                                              
 800 SITE_DESCRIPTION: binding site for residue PEG D 302                 
 800                                                                      
 800 SITE_IDENTIFIER: AE7                                                 
 800 EVIDENCE_CODE: SOFTWARE                                              
 800 SITE_DESCRIPTION: binding site for residue PEG D 303                 
 800                                                                      
 800 SITE_IDENTIFIER: AE8                                                 
 800 EVIDENCE_CODE: SOFTWARE                                              
 800 SITE_DESCRIPTION: binding site for residue SO4 D 304                 
 800                                                                      
 800 SITE_IDENTIFIER: AE9                                                 
 800 EVIDENCE_CODE: SOFTWARE                                              
 800 SITE_DESCRIPTION: binding site for residue ACY D 305                 
 800                                                                      
 800 SITE_IDENTIFIER: AF1                                                 
 800 EVIDENCE_CODE: SOFTWARE                                              
 800 SITE_DESCRIPTION: binding site for residue PEG D 306                 

>  <DBREF>
 6J8Q A   26   291  UNP    Q93LQ9   Q93LQ9_KLEPN    26    289             
 6J8Q B   26   291  UNP    Q93LQ9   Q93LQ9_KLEPN    26    289             
 6J8Q C   26   291  UNP    Q93LQ9   Q93LQ9_KLEPN    26    289             
 6J8Q D   26   291  UNP    Q93LQ9   Q93LQ9_KLEPN    26    289             

>  <SEQADV>
 6J8Q SER A   25  UNP  Q93LQ9              EXPRESSION TAG                 
 6J8Q SER B   25  UNP  Q93LQ9              EXPRESSION TAG                 
 6J8Q SER C   25  UNP  Q93LQ9              EXPRESSION TAG                 
 6J8Q SER D   25  UNP  Q93LQ9              EXPRESSION TAG                 

>  <SEQRES>
   1 A  265  SER THR ASN LEU VAL ALA GLU PRO PHE ALA LYS LEU GLU          
   2 A  265  GLN ASP PHE GLY GLY SER ILE GLY VAL TYR ALA MET ASP          
   3 A  265  THR GLY SER GLY ALA THR VAL SER TYR ARG ALA GLU GLU          
   4 A  265  ARG PHE PRO LEU CYS SER SER PHE LYS GLY PHE LEU ALA          
   5 A  265  ALA ALA VAL LEU ALA ARG SER GLN GLN GLN ALA GLY LEU          
   6 A  265  LEU ASP THR PRO ILE ARG TYR GLY LYS ASN ALA LEU VAL          
   7 A  265  PRO TRP SER PRO ILE SER GLU LYS TYR LEU THR THR GLY          
   8 A  265  MET THR VAL ALA GLU LEU SER ALA ALA ALA VAL GLN TYR          
   9 A  265  SER ASP ASN ALA ALA ALA ASN LEU LEU LEU LYS GLU LEU          
  10 A  265  GLY GLY PRO ALA GLY LEU THR ALA PHE MET ARG SER ILE          
  11 A  265  GLY ASP THR THR PHE ARG LEU ASP ARG TRP GLU LEU GLU          
  12 A  265  LEU ASN SER ALA ILE PRO GLY ASP ALA ARG ASP THR SER          
  13 A  265  SER PRO ARG ALA VAL THR GLU SER LEU GLN LYS LEU THR          
  14 A  265  LEU GLY SER ALA LEU ALA ALA PRO GLN ARG GLN GLN PHE          
  15 A  265  VAL ASP TRP LEU LYS GLY ASN THR THR GLY ASN HIS ARG          
  16 A  265  ILE ARG ALA ALA VAL PRO ALA ASP TRP ALA VAL GLY ASP          
  17 A  265  LYS THR GLY THR CYS GLY VAL TYR GLY THR ALA ASN ASP          
  18 A  265  TYR ALA VAL VAL TRP PRO THR GLY ARG ALA PRO ILE VAL          
  19 A  265  LEU ALA VAL TYR THR ARG ALA PRO ASN LYS ASP ASP LYS          
  20 A  265  HIS SER GLU ALA VAL ILE ALA ALA ALA ALA ARG LEU ALA          
  21 A  265  LEU GLU GLY LEU GLY                                          
   1 B  265  SER THR ASN LEU VAL ALA GLU PRO PHE ALA LYS LEU GLU          
   2 B  265  GLN ASP PHE GLY GLY SER ILE GLY VAL TYR ALA MET ASP          
   3 B  265  THR GLY SER GLY ALA THR VAL SER TYR ARG ALA GLU GLU          
   4 B  265  ARG PHE PRO LEU CYS SER SER PHE LYS GLY PHE LEU ALA          
   5 B  265  ALA ALA VAL LEU ALA ARG SER GLN GLN GLN ALA GLY LEU          
   6 B  265  LEU ASP THR PRO ILE ARG TYR GLY LYS ASN ALA LEU VAL          
   7 B  265  PRO TRP SER PRO ILE SER GLU LYS TYR LEU THR THR GLY          
   8 B  265  MET THR VAL ALA GLU LEU SER ALA ALA ALA VAL GLN TYR          
   9 B  265  SER ASP ASN ALA ALA ALA ASN LEU LEU LEU LYS GLU LEU          
  10 B  265  GLY GLY PRO ALA GLY LEU THR ALA PHE MET ARG SER ILE          
  11 B  265  GLY ASP THR THR PHE ARG LEU ASP ARG TRP GLU LEU GLU          
  12 B  265  LEU ASN SER ALA ILE PRO GLY ASP ALA ARG ASP THR SER          
  13 B  265  SER PRO ARG ALA VAL THR GLU SER LEU GLN LYS LEU THR          
  14 B  265  LEU GLY SER ALA LEU ALA ALA PRO GLN ARG GLN GLN PHE          
  15 B  265  VAL ASP TRP LEU LYS GLY ASN THR THR GLY ASN HIS ARG          
  16 B  265  ILE ARG ALA ALA VAL PRO ALA ASP TRP ALA VAL GLY ASP          
  17 B  265  LYS THR GLY THR CYS GLY VAL TYR GLY THR ALA ASN ASP          
  18 B  265  TYR ALA VAL VAL TRP PRO THR GLY ARG ALA PRO ILE VAL          
  19 B  265  LEU ALA VAL TYR THR ARG ALA PRO ASN LYS ASP ASP LYS          
  20 B  265  HIS SER GLU ALA VAL ILE ALA ALA ALA ALA ARG LEU ALA          
  21 B  265  LEU GLU GLY LEU GLY                                          
   1 C  265  SER THR ASN LEU VAL ALA GLU PRO PHE ALA LYS LEU GLU          
   2 C  265  GLN ASP PHE GLY GLY SER ILE GLY VAL TYR ALA MET ASP          
   3 C  265  THR GLY SER GLY ALA THR VAL SER TYR ARG ALA GLU GLU          
   4 C  265  ARG PHE PRO LEU CYS SER SER PHE LYS GLY PHE LEU ALA          
   5 C  265  ALA ALA VAL LEU ALA ARG SER GLN GLN GLN ALA GLY LEU          
   6 C  265  LEU ASP THR PRO ILE ARG TYR GLY LYS ASN ALA LEU VAL          
   7 C  265  PRO TRP SER PRO ILE SER GLU LYS TYR LEU THR THR GLY          
   8 C  265  MET THR VAL ALA GLU LEU SER ALA ALA ALA VAL GLN TYR          
   9 C  265  SER ASP ASN ALA ALA ALA ASN LEU LEU LEU LYS GLU LEU          
  10 C  265  GLY GLY PRO ALA GLY LEU THR ALA PHE MET ARG SER ILE          
  11 C  265  GLY ASP THR THR PHE ARG LEU ASP ARG TRP GLU LEU GLU          
  12 C  265  LEU ASN SER ALA ILE PRO GLY ASP ALA ARG ASP THR SER          
  13 C  265  SER PRO ARG ALA VAL THR GLU SER LEU GLN LYS LEU THR          
  14 C  265  LEU GLY SER ALA LEU ALA ALA PRO GLN ARG GLN GLN PHE          
  15 C  265  VAL ASP TRP LEU LYS GLY ASN THR THR GLY ASN HIS ARG          
  16 C  265  ILE ARG ALA ALA VAL PRO ALA ASP TRP ALA VAL GLY ASP          
  17 C  265  LYS THR GLY THR CYS GLY VAL TYR GLY THR ALA ASN ASP          
  18 C  265  TYR ALA VAL VAL TRP PRO THR GLY ARG ALA PRO ILE VAL          
  19 C  265  LEU ALA VAL TYR THR ARG ALA PRO ASN LYS ASP ASP LYS          
  20 C  265  HIS SER GLU ALA VAL ILE ALA ALA ALA ALA ARG LEU ALA          
  21 C  265  LEU GLU GLY LEU GLY                                          
   1 D  265  SER THR ASN LEU VAL ALA GLU PRO PHE ALA LYS LEU GLU          
   2 D  265  GLN ASP PHE GLY GLY SER ILE GLY VAL TYR ALA MET ASP          
   3 D  265  THR GLY SER GLY ALA THR VAL SER TYR ARG ALA GLU GLU          
   4 D  265  ARG PHE PRO LEU CYS SER SER PHE LYS GLY PHE LEU ALA          
   5 D  265  ALA ALA VAL LEU ALA ARG SER GLN GLN GLN ALA GLY LEU          
   6 D  265  LEU ASP THR PRO ILE ARG TYR GLY LYS ASN ALA LEU VAL          
   7 D  265  PRO TRP SER PRO ILE SER GLU LYS TYR LEU THR THR GLY          
   8 D  265  MET THR VAL ALA GLU LEU SER ALA ALA ALA VAL GLN TYR          
   9 D  265  SER ASP ASN ALA ALA ALA ASN LEU LEU LEU LYS GLU LEU          
  10 D  265  GLY GLY PRO ALA GLY LEU THR ALA PHE MET ARG SER ILE          
  11 D  265  GLY ASP THR THR PHE ARG LEU ASP ARG TRP GLU LEU GLU          
  12 D  265  LEU ASN SER ALA ILE PRO GLY ASP ALA ARG ASP THR SER          
  13 D  265  SER PRO ARG ALA VAL THR GLU SER LEU GLN LYS LEU THR          
  14 D  265  LEU GLY SER ALA LEU ALA ALA PRO GLN ARG GLN GLN PHE          
  15 D  265  VAL ASP TRP LEU LYS GLY ASN THR THR GLY ASN HIS ARG          
  16 D  265  ILE ARG ALA ALA VAL PRO ALA ASP TRP ALA VAL GLY ASP          
  17 D  265  LYS THR GLY THR CYS GLY VAL TYR GLY THR ALA ASN ASP          
  18 D  265  TYR ALA VAL VAL TRP PRO THR GLY ARG ALA PRO ILE VAL          
  19 D  265  LEU ALA VAL TYR THR ARG ALA PRO ASN LYS ASP ASP LYS          
  20 D  265  HIS SER GLU ALA VAL ILE ALA ALA ALA ALA ARG LEU ALA          
  21 D  265  LEU GLU GLY LEU GLY                                          

>  <HET>
 BHU  A 301      11                                                       
 PEG  A 302       7                                                       
 PEG  A 303       7                                                       
 PEG  A 304       7                                                       
 PEG  A 305       7                                                       
 PEG  A 306       7                                                       
 PEG  A 307       7                                                       
 PEG  A 308       7                                                       
 ACY  A 309       4                                                       
 ACY  A 310       4                                                       
 BHU  B 301      11                                                       
 PEG  B 302       7                                                       
 PEG  B 303       7                                                       
 PEG  B 304       7                                                       
 PEG  B 305       7                                                       
 ACY  B 306       4                                                       
 ACY  B 307       4                                                       
 BHU  C 301      11                                                       
 PEG  C 302       7                                                       
 PEG  C 303       7                                                       
 SO4  C 304       5                                                       
 ACY  C 305       4                                                       
 BHU  D 301      11                                                       
 PEG  D 302       7                                                       
 PEG  D 303       7                                                       
 SO4  D 304       5                                                       
 ACY  D 305       4                                                       
 PEG  D 306       7                                                       

>  <HETNAM>
     BHU [[(2S)-2-METHYL-3-SULFANYL-                                      
   2 BHU  PROPANOYL]AMINO]METHYLBORONIC ACID                              
     PEG DI(HYDROXYETHYL)ETHER                                            
     ACY ACETIC ACID                                                      
     SO4 SULFATE ION                                                      

>  <HETSYN>
     BHU (S)-((3-MERCAPTO-2-METHYLPROPANAMIDO)METHYL)BORONIC              
   2 BHU  ACID                                                            

>  <FORMUL>
   5  BHU    4(C5 H12 B N O3 S)                                           
   6  PEG    16(C4 H10 O3)                                                
  13  ACY    6(C2 H4 O2)                                                  
  25  SO4    2(O4 S 2-)                                                   
  33  HOH   *808(H2 O)                                                    

>  <HELIX>
   1 AA1 ALA A   30  GLY A   41  1                                  12    
   2 AA2 SER A   71  GLN A   85  1                                  15    
   3 AA3 GLY A   89  ASP A   92  5                                   4    
   4 AA4 GLY A   98  LEU A  102  5                                   5    
   5 AA5 SER A  106  TYR A  112  1                                   7    
   6 AA6 VAL A  119  SER A  130  1                                  12    
   7 AA7 ASP A  131  LEU A  142  1                                  12    
   8 AA8 GLY A  143  ILE A  155  1                                  13    
   9 AA9 LEU A  167  SER A  171  5                                   5    
  10 AB1 SER A  182  LEU A  195  1                                  14    
  11 AB2 ALA A  200  GLY A  213  1                                  14    
  12 AB3 ARG A  220  VAL A  225  1                                   6    
  13 AB4 SER A  275  LEU A  290  1                                  16    
  14 AB5 VAL B   29  GLY B   41  1                                  13    
  15 AB6 SER B   71  GLN B   85  1                                  15    
  16 AB7 GLY B   98  LEU B  102  5                                   5    
  17 AB8 SER B  106  TYR B  112  1                                   7    
  18 AB9 VAL B  119  TYR B  129  1                                  11    
  19 AC1 ASP B  131  LEU B  142  1                                  12    
  20 AC2 GLY B  143  ILE B  155  1                                  13    
  21 AC3 LEU B  167  SER B  171  5                                   5    
  22 AC4 SER B  182  LEU B  195  1                                  14    
  23 AC5 ALA B  200  GLY B  213  1                                  14    
  24 AC6 ARG B  220  VAL B  225  5                                   6    
  25 AC7 SER B  275  LEU B  290  1                                  16    
  26 AC8 VAL C   29  GLY C   41  1                                  13    
  27 AC9 SER C   71  GLN C   85  1                                  15    
  28 AD1 GLY C   89  ASP C   92  5                                   4    
  29 AD2 GLY C   98  LEU C  102  5                                   5    
  30 AD3 SER C  106  TYR C  112  1                                   7    
  31 AD4 VAL C  119  SER C  130  1                                  12    
  32 AD5 ASP C  131  LEU C  142  1                                  12    
  33 AD6 GLY C  143  ILE C  155  1                                  13    
  34 AD7 LEU C  167  SER C  171  5                                   5    
  35 AD8 SER C  182  GLY C  196  1                                  15    
  36 AD9 ALA C  200  GLY C  213  1                                  14    
  37 AE1 ARG C  220  VAL C  225  5                                   6    
  38 AE2 SER C  275  LEU C  290  1                                  16    
  39 AE3 PRO D   32  GLY D   41  1                                  10    
  40 AE4 SER D   71  GLN D   85  1                                  15    
  41 AE5 GLY D   89  ASP D   92  5                                   4    
  42 AE6 GLY D   98  LEU D  102  5                                   5    
  43 AE7 SER D  106  TYR D  112  1                                   7    
  44 AE8 VAL D  119  SER D  130  1                                  12    
  45 AE9 ASP D  131  GLY D  143  1                                  13    
  46 AF1 GLY D  143  ILE D  155  1                                  13    
  47 AF2 LEU D  167  SER D  171  5                                   5    
  48 AF3 SER D  182  LEU D  195  1                                  14    
  49 AF4 ALA D  200  GLY D  213  1                                  14    
  50 AF5 ARG D  220  VAL D  225  5                                   6    
  51 AF6 SER D  275  LEU D  290  1                                  16    

>  <SHEET>
   1 AA1 5 THR A  56  TYR A  60  0                                        
   2 AA1 5 SER A  43  ASP A  50 -1  N  VAL A  46   O  TYR A  60           
   3 AA1 5 ILE A 259  ARG A 266 -1  O  TYR A 264   N  GLY A  45           
   4 AA1 5 ALA A 244  TRP A 251 -1  N  VAL A 250   O  ILE A 259           
   5 AA1 5 ALA A 230  THR A 237 -1  N  ALA A 230   O  TRP A 251           
   1 AA2 2 PHE A  66  PRO A  67  0                                        
   2 AA2 2 THR A 180  SER A 181 -1  O  SER A 181   N  PHE A  66           
   1 AA3 2 PRO A  94  ILE A  95  0                                        
   2 AA3 2 MET A 117  THR A 118 -1  O  MET A 117   N  ILE A  95           
   1 AA4 5 THR B  56  TYR B  60  0                                        
   2 AA4 5 SER B  43  ASP B  50 -1  N  VAL B  46   O  TYR B  60           
   3 AA4 5 ILE B 259  ARG B 266 -1  O  VAL B 260   N  MET B  49           
   4 AA4 5 ALA B 244  TRP B 251 -1  N  VAL B 250   O  ILE B 259           
   5 AA4 5 ALA B 230  THR B 237 -1  N  ALA B 230   O  TRP B 251           
   1 AA5 2 PHE B  66  PRO B  67  0                                        
   2 AA5 2 THR B 180  SER B 181 -1  O  SER B 181   N  PHE B  66           
   1 AA6 2 PRO B  94  ILE B  95  0                                        
   2 AA6 2 MET B 117  THR B 118 -1  O  MET B 117   N  ILE B  95           
   1 AA7 5 THR C  56  TYR C  60  0                                        
   2 AA7 5 SER C  43  ASP C  50 -1  N  VAL C  46   O  TYR C  60           
   3 AA7 5 ILE C 259  ARG C 266 -1  O  TYR C 264   N  GLY C  45           
   4 AA7 5 ALA C 244  TRP C 251 -1  N  ASP C 246   O  VAL C 263           
   5 AA7 5 ALA C 230  THR C 237 -1  N  ALA C 230   O  TRP C 251           
   1 AA8 2 PHE C  66  PRO C  67  0                                        
   2 AA8 2 THR C 180  SER C 181 -1  O  SER C 181   N  PHE C  66           
   1 AA9 2 PRO C  94  ILE C  95  0                                        
   2 AA9 2 MET C 117  THR C 118 -1  O  MET C 117   N  ILE C  95           
   1 AB1 5 THR D  56  TYR D  60  0                                        
   2 AB1 5 SER D  43  ASP D  50 -1  N  VAL D  46   O  TYR D  60           
   3 AB1 5 ILE D 259  ARG D 266 -1  O  TYR D 264   N  GLY D  45           
   4 AB1 5 ALA D 244  TRP D 251 -1  N  VAL D 250   O  ILE D 259           
   5 AB1 5 ALA D 230  THR D 237 -1  N  ALA D 230   O  TRP D 251           
   1 AB2 2 PHE D  66  PRO D  67  0                                        
   2 AB2 2 THR D 180  SER D 181 -1  O  SER D 181   N  PHE D  66           
   1 AB3 2 PRO D  94  ILE D  95  0                                        
   2 AB3 2 MET D 117  THR D 118 -1  O  MET D 117   N  ILE D  95           

>  <SSBOND>
   1 CYS A   69    CYS A  238                          1555   1555  2.09  
   2 CYS B   69    CYS B  238                          1555   1555  2.09  
   3 CYS C   69    CYS C  238                          1555   1555  2.09  
   4 CYS D   69    CYS D  238                          1555   1555  2.09  

>  <CISPEP>
   1 GLU A  166    LEU A  167          0        -3.35                     
   2 GLU B  166    LEU B  167          0         1.57                     
   3 GLU C  166    LEU C  167          0        -1.19                     
   4 PRO C  252    THR C  254          0       -29.65                     
   5 GLU D  166    LEU D  167          0         7.77                     

>  <SITE>
   1 AC1  9 CYS A  69  SER A  70  ASN A 132  GLU A 166                    
   2 AC1  9 ASN A 170  THR A 237  CYS A 238  ACY A 309                    
   3 AC1  9 HOH A 482                                                     
   1 AC2  3 TYR A  97  PEG A 303  HOH A 404                               
   1 AC3  4 ARG A  96  PEG A 302  HOH A 415  HOH A 514                    
   1 AC4  2 ALA A 101  HOH A 415                                          
   1 AC5  3 ILE A 108  LYS A 111  TYR A 129                               
   1 AC6  3 LYS A 212  ALA A 230  TRP A 251                               
   1 AC7  1 HOH B 424                                                     
   1 AC8  1 HOH A 600                                                     
   1 AC9  8 SER A  70  SER A 130  LYS A 234  THR A 235                    
   2 AC9  8 GLY A 236  THR A 237  BHU A 301  HOH A 485                    
   1 AD1  4 SER A 275  GLU A 276  ALA A 277  HOH A 492                    
   1 AD2  8 CYS B  69  SER B  70  TRP B 105  ASN B 132                    
   2 AD2  8 GLU B 166  ASN B 170  THR B 237  ACY B 306                    
   1 AD3  6 ILE B 108  LYS B 111  LEU B 287  PEG B 303                    
   2 AD3  6 HOH B 401  HOH B 459                                          
   1 AD4  9 THR B 215  ASN B 218  ALA B 224  VAL B 225                    
   2 AD4  9 PRO B 226  PEG B 302  HOH B 401  HOH B 402                    
   3 AD4  9 HOH B 404                                                     
   1 AD5  5 GLN B  85  GLN B  86  ALA B  88  GLN D  85                    
   2 AD5  5 PEG D 306                                                     
   1 AD6  5 GLN B  85  HOH B 428  SER D  84  GLN D  85                    
   2 AD6  5 ALA D  88                                                     
   1 AD7  7 SER B  70  SER B 130  LYS B 234  THR B 235                    
   2 AD7  7 GLY B 236  THR B 237  BHU B 301                               
   1 AD8  5 SER B 275  GLU B 276  ALA B 277  HOH B 458                    
   2 AD8  5 HOH B 465                                                     
   1 AD9  9 CYS C  69  SER C  70  ASN C 132  GLU C 166                    
   2 AD9  9 ASN C 170  THR C 237  CYS C 238  ACY C 305                    
   3 AD9  9 HOH C 463                                                     
   1 AE1  4 ASN C 100  PEG C 303  HOH C 510  GLY D  54                    
   1 AE2  3 ASN C 100  PEG C 302  HOH C 491                               
   1 AE3  4 SER C 275  GLU C 276  ALA C 277  HOH C 426                    
   1 AE4  7 SER C  70  SER C 130  LYS C 234  THR C 235                    
   2 AE4  7 GLY C 236  THR C 237  BHU C 301                               
   1 AE5  8 CYS D  69  SER D  70  ASN D 132  GLU D 166                    
   2 AE5  8 ASN D 170  THR D 237  ACY D 305  HOH D 481                    
   1 AE6  2 LYS D 212  ALA D 230                                          
   1 AE7  5 LEU D 167  ASN D 170  CYS D 238  VAL D 240                    
   2 AE7  5 HOH D 545                                                     
   1 AE8  3 SER D 275  GLU D 276  ALA D 277                               
   1 AE9  7 SER D  70  SER D 130  LYS D 234  THR D 235                    
   2 AE9  7 GLY D 236  THR D 237  BHU D 301                               
   1 AF1  3 PEG B 304  GLN D  85  HOH D 427                               

>  <ORIGX1>
      1.000000  0.000000  0.000000        0.00000                         

>  <ORIGX2>
      0.000000  1.000000  0.000000        0.00000                         

>  <ORIGX3>
      0.000000  0.000000  1.000000        0.00000                         

>  <SCALE1>
      0.006055  0.003496  0.000000        0.00000                         

>  <SCALE2>
      0.000000  0.006991  0.000000        0.00000                         

>  <SCALE3>
      0.000000  0.000000  0.010538        0.00000                         

>  <MASTER>
      532    0   28   51   36    0   45    6 8835    4  198   84          

$$$$
