start_structures/Ligand_Substrate/Ligand_Complex_Stripped/BJH_1ERQ.pdb
 OpenBabel08222315203D

 25 25  0  0  1  0  0  0  0  0999 V2000
   36.2480   35.0770   31.2240 N   0  0  0  0  0  0  0  0  0  0  0  0
   36.3790   35.7340   29.9050 C   0  0  2  0  0  0  0  0  0  0  0  0
   35.6880   35.0040   28.7500 C   0  0  0  0  0  0  0  0  0  0  0  0
   35.6740   35.4750   27.6180 O   0  0  0  0  0  0  0  0  0  0  0  0
   37.8160   35.9710   29.4790 C   0  0  0  0  0  0  0  0  0  0  0  0
   38.5400   36.9330   30.3350 O   0  0  0  0  0  0  0  0  0  0  0  0
   40.7560   38.4160   31.5970 C   0  0  0  0  0  0  0  0  0  0  0  0
   39.6690   37.8600   32.5410 C   0  0  2  0  0  0  0  0  0  0  0  0
   40.2880   37.1840   33.6800 N   0  0  0  0  0  0  0  0  0  0  0  0
   40.7800   37.9460   34.6630 C   0  0  0  0  0  0  0  0  0  0  0  0
   41.3700   37.2190   35.8960 C   0  0  0  0  0  0  0  0  0  0  0  0
   40.7870   39.1810   34.5970 O   0  0  0  0  0  0  0  0  0  0  0  0
   42.3520   33.7590   29.4730 C   0  0  0  0  0  0  0  0  0  0  0  0
   41.5740   33.8730   28.5000 O   0  0  0  0  0  0  0  0  0  0  0  0
   43.0410   32.7160   29.6600 O   0  0  0  0  0  0  0  0  0  0  0  0
   38.6610   36.8700   31.7770 B   0  0  0  0  0  0  0  0  0  0  0  0
   38.8690   35.4150   32.1530 O   0  0  0  0  0  0  0  0  0  0  0  0
   43.1790   37.7940   31.5490 C   0  0  0  0  0  0  0  0  0  0  0  0
   41.7580   37.3140   31.1930 C   0  0  0  0  0  0  0  0  0  0  0  0
   44.4100   36.9040   31.2200 C   0  0  0  0  0  0  0  0  0  0  0  0
   41.5970   35.9600   30.4950 C   0  0  0  0  0  0  0  0  0  0  0  0
   44.2120   35.5280   30.5100 C   0  0  0  0  0  0  0  0  0  0  0  0
   42.7840   35.0650   30.1720 C   0  0  0  0  0  0  0  0  0  0  0  0
   37.4150   37.4190   32.3100 O   0  0  0  0  0  0  0  0  0  0  0  0
   40.4230   35.6180   30.2410 O   0  0  0  0  0  0  0  0  0  0  0  0
  2  1  1  1  0  0  0
  3  2  1  0  0  0  0
  4  3  2  0  0  0  0
  5  2  1  0  0  0  0
  5  6  1  0  0  0  0
  6 16  1  0  0  0  0
  7 19  1  0  0  0  0
  8  7  1  6  0  0  0
  8  9  1  0  0  0  0
  8 16  1  0  0  0  0
  9 10  1  0  0  0  0
 10 11  1  0  0  0  0
 10 12  2  0  0  0  0
 13 14  2  0  0  0  0
 13 15  1  0  0  0  0
 13 23  1  0  0  0  0
 16 17  1  0  0  0  0
 16 24  1  0  0  0  0
 18 19  2  0  0  0  0
 18 20  1  0  0  0  0
 19 21  1  0  0  0  0
 20 22  1  0  0  0  0
 21 23  1  0  0  0  0
 21 25  2  0  0  0  0
 22 23  2  0  0  0  0
M  END
>  <HEADER>
    HYDROLASE                               06-APR-00   1ERQ              

>  <TITLE>
    X-RAY CRYSTAL STRUCTURE OF TEM-1 BETA LACTAMASE IN COMPLEX            
   2 WITH A DESIGNED BORONIC ACID INHIBITOR (1R)-1-ACETAMIDO-2-           
   3 (3-CARBOXY-2-HYDROXYPHENYL)ETHYL BORONIC ACID                        

>  <COMPND>
    MOL_ID: 1;                                                            
   2 MOLECULE: TEM-1 BETA-LACTAMASE;                                      
   3 CHAIN: A;                                                            
   4 EC: 3.5.2.6;                                                         
   5 ENGINEERED: YES                                                      

>  <SOURCE>
    MOL_ID: 1;                                                            
   2 ORGANISM_SCIENTIFIC: ESCHERICHIA COLI;                               
   3 ORGANISM_TAXID: 562;                                                 
   4 EXPRESSION_SYSTEM: ESCHERICHIA COLI;                                 
   5 EXPRESSION_SYSTEM_TAXID: 562;                                        
   6 EXPRESSION_SYSTEM_VECTOR_TYPE: PLASMID;                              
   7 EXPRESSION_SYSTEM_PLASMID: PUC118                                    

>  <KEYWDS>
    BETA-LACTAMASE, STRUCTURE-BASED DESIGN, BORONATE INHIBITOR,           
   2 HYDROLASE                                                            

>  <EXPDTA>
    X-RAY DIFFRACTION                                                     

>  <AUTHOR>
    S.NESS,R.MARTIN,A.M.KINDLER,M.PAETZEL,M.GOLD,J.B.JONES,               
   2 N.C.J.STRYNADKA                                                      

>  <REVDAT>
   4   24-FEB-09 1ERQ    1       VERSN                                    
   3   01-APR-03 1ERQ    1       JRNL                                     
   2   20-DEC-00 1ERQ    1       REMARK                                   
   1   10-MAY-00 1ERQ    0                                                

>  <JRNL>
      AUTH   S.NESS,R.MARTIN,A.M.KINDLER,M.PAETZEL,M.GOLD,                
      AUTH 2 S.E.JENSEN,J.B.JONES,N.C.STRYNADKA                           
      TITL   STRUCTURE-BASED DESIGN GUIDES THE IMPROVED                   
      TITL 2 EFFICACY OF DEACYLATION TRANSITION STATE ANALOGUE            
      TITL 3 INHIBITORS OF TEM-1 BETA-LACTAMASE(,).                       
      REF    BIOCHEMISTRY                  V.  39  5312 2000              
      REFN                   ISSN 0006-2960                               
      PMID   10820001                                                     
      DOI    10.1021/BI992505B                                            

>  <REMARK>
   1                                                                      
   2                                                                      
   2 RESOLUTION.    1.90 ANGSTROMS.                                       
   3                                                                      
   3 REFINEMENT.                                                          
   3   PROGRAM     : TNT                                                  
   3   AUTHORS     : TRONRUD,TEN EYCK,MATTHEWS                            
   3                                                                      
   3  DATA USED IN REFINEMENT.                                            
   3   RESOLUTION RANGE HIGH (ANGSTROMS) : 1.90                           
   3   RESOLUTION RANGE LOW  (ANGSTROMS) : 20.00                          
   3   DATA CUTOFF            (SIGMA(F)) : 0.000                          
   3   COMPLETENESS FOR RANGE        (%) : 93.0                           
   3   NUMBER OF REFLECTIONS             : 18087                          
   3                                                                      
   3  USING DATA ABOVE SIGMA CUTOFF.                                      
   3   CROSS-VALIDATION METHOD          : NULL                            
   3   FREE R VALUE TEST SET SELECTION  : NULL                            
   3   R VALUE     (WORKING + TEST SET) : 0.192                           
   3   R VALUE            (WORKING SET) : 0.192                           
   3   FREE R VALUE                     : NULL                            
   3   FREE R VALUE TEST SET SIZE   (%) : NULL                            
   3   FREE R VALUE TEST SET COUNT      : 0                               
   3                                                                      
   3  USING ALL DATA, NO SIGMA CUTOFF.                                    
   3   R VALUE   (WORKING + TEST SET, NO CUTOFF) : 0.1920                 
   3   R VALUE          (WORKING SET, NO CUTOFF) : NULL                   
   3   FREE R VALUE                  (NO CUTOFF) : NULL                   
   3   FREE R VALUE TEST SET SIZE (%, NO CUTOFF) : NULL                   
   3   FREE R VALUE TEST SET COUNT   (NO CUTOFF) : NULL                   
   3   TOTAL NUMBER OF REFLECTIONS   (NO CUTOFF) : 18087                  
   3                                                                      
   3  NUMBER OF NON-HYDROGEN ATOMS USED IN REFINEMENT.                    
   3   PROTEIN ATOMS            : 2027                                    
   3   NUCLEIC ACID ATOMS       : 0                                       
   3   HETEROGEN ATOMS          : 19                                      
   3   SOLVENT ATOMS            : 121                                     
   3                                                                      
   3  WILSON B VALUE (FROM FCALC, A**2) : 24.600                          
   3                                                                      
   3  RMS DEVIATIONS FROM IDEAL VALUES.    RMS    WEIGHT  COUNT           
   3   BOND LENGTHS                 (A) : 0.017 ; NULL  ; NULL            
   3   BOND ANGLES            (DEGREES) : 3.300 ; NULL  ; NULL            
   3   TORSION ANGLES         (DEGREES) : NULL  ; NULL  ; NULL            
   3   PSEUDOROTATION ANGLES  (DEGREES) : NULL  ; NULL  ; NULL            
   3   TRIGONAL CARBON PLANES       (A) : 0.019 ; NULL  ; NULL            
   3   GENERAL PLANES               (A) : 0.019 ; NULL  ; NULL            
   3   ISOTROPIC THERMAL FACTORS (A**2) : NULL  ; NULL  ; NULL            
   3   NON-BONDED CONTACTS          (A) : NULL  ; NULL  ; NULL            
   3                                                                      
   3  INCORRECT CHIRAL-CENTERS (COUNT) : NULL                             
   3                                                                      
   3  BULK SOLVENT MODELING.                                              
   3   METHOD USED : NULL                                                 
   3   KSOL        : NULL                                                 
   3   BSOL        : NULL                                                 
   3                                                                      
   3  RESTRAINT LIBRARIES.                                                
   3   STEREOCHEMISTRY : BOND LENGTH = 1.0   BOND ANGLE = 1.5   TRY       
   3                     PLANES = 1.2 GEN. PLANES = 4.0 BAD CONTACTS      
   3                     = 12.00 TEMP. = 3                                
   3   ISOTROPIC THERMAL FACTOR RESTRAINTS : NULL                         
   3                                                                      
   3  OTHER REFINEMENT REMARKS: NULL                                      
   4                                                                      
   4 1ERQ COMPLIES WITH FORMAT V. 3.15, 01-DEC-08                         
 100                                                                      
 100 THIS ENTRY HAS BEEN PROCESSED BY RCSB ON 20-APR-00.                  
 100 THE RCSB ID CODE IS RCSB010840.                                      
 200                                                                      
 200 EXPERIMENTAL DETAILS                                                 
 200  EXPERIMENT TYPE                : X-RAY DIFFRACTION                  
 200  DATE OF DATA COLLECTION        : 04-FEB-99                          
 200  TEMPERATURE           (KELVIN) : 298.0                              
 200  PH                             : 8.0                                
 200  NUMBER OF CRYSTALS USED        : 1                                  
 200                                                                      
 200  SYNCHROTRON              (Y/N) : N                                  
 200  RADIATION SOURCE               : ROTATING ANODE                     
 200  BEAMLINE                       : NULL                               
 200  X-RAY GENERATOR MODEL          : RIGAKU                             
 200  MONOCHROMATIC OR LAUE    (M/L) : M                                  
 200  WAVELENGTH OR RANGE        (A) : 1.5418                             
 200  MONOCHROMATOR                  : NULL                               
 200  OPTICS                         : NULL                               
 200                                                                      
 200  DETECTOR TYPE                  : IMAGE PLATE                        
 200  DETECTOR MANUFACTURER          : RIGAKU RAXIS II                    
 200  INTENSITY-INTEGRATION SOFTWARE : DENZO                              
 200  DATA SCALING SOFTWARE          : SCALEPACK                          
 200                                                                      
 200  NUMBER OF UNIQUE REFLECTIONS   : 18128                              
 200  RESOLUTION RANGE HIGH      (A) : 1.900                              
 200  RESOLUTION RANGE LOW       (A) : 30.000                             
 200  REJECTION CRITERIA  (SIGMA(I)) : 2.000                              
 200                                                                      
 200 OVERALL.                                                             
 200  COMPLETENESS FOR RANGE     (%) : 67.3                               
 200  DATA REDUNDANCY                : 4.000                              
 200  R MERGE                    (I) : 0.12600                            
 200  R SYM                      (I) : NULL                               
 200  <I/SIGMA(I)> FOR THE DATA SET  : 5.0000                             
 200                                                                      
 200 IN THE HIGHEST RESOLUTION SHELL.                                     
 200  HIGHEST RESOLUTION SHELL, RANGE HIGH (A) : 1.90                     
 200  HIGHEST RESOLUTION SHELL, RANGE LOW  (A) : 1.93                     
 200  COMPLETENESS FOR SHELL     (%) : 67.3                               
 200  DATA REDUNDANCY IN SHELL       : 3.00                               
 200  R MERGE FOR SHELL          (I) : 0.71900                            
 200  R SYM FOR SHELL            (I) : NULL                               
 200  <I/SIGMA(I)> FOR SHELL         : NULL                               
 200                                                                      
 200 DIFFRACTION PROTOCOL: SINGLE WAVELENGTH                              
 200 METHOD USED TO DETERMINE THE STRUCTURE: NULL                         
 200 SOFTWARE USED: NULL                                                  
 200 STARTING MODEL: NULL                                                 
 200                                                                      
 200 REMARK: NULL                                                         
 280                                                                      
 280 CRYSTAL                                                              
 280 SOLVENT CONTENT, VS   (%): 39.87                                     
 280 MATTHEWS COEFFICIENT, VM (ANGSTROMS**3/DA): 2.05                     
 280                                                                      
 280 CRYSTALLIZATION CONDITIONS: PHOSPHATE, PH 8.0, VAPOR DIFFUSION,      
 280  HANGING DROP, TEMPERATURE 298.0K                                    
 290                                                                      
 290 CRYSTALLOGRAPHIC SYMMETRY                                            
 290 SYMMETRY OPERATORS FOR SPACE GROUP: P 21 21 21                       
 290                                                                      
 290      SYMOP   SYMMETRY                                                
 290     NNNMMM   OPERATOR                                                
 290       1555   X,Y,Z                                                   
 290       2555   -X+1/2,-Y,Z+1/2                                         
 290       3555   -X,Y+1/2,-Z+1/2                                         
 290       4555   X+1/2,-Y+1/2,-Z                                         
 290                                                                      
 290     WHERE NNN -> OPERATOR NUMBER                                     
 290           MMM -> TRANSLATION VECTOR                                  
 290                                                                      
 290 CRYSTALLOGRAPHIC SYMMETRY TRANSFORMATIONS                            
 290 THE FOLLOWING TRANSFORMATIONS OPERATE ON THE ATOM/HETATM             
 290 RECORDS IN THIS ENTRY TO PRODUCE CRYSTALLOGRAPHICALLY                
 290 RELATED MOLECULES.                                                   
 290   SMTRY1   1  1.000000  0.000000  0.000000        0.00000            
 290   SMTRY2   1  0.000000  1.000000  0.000000        0.00000            
 290   SMTRY3   1  0.000000  0.000000  1.000000        0.00000            
 290   SMTRY1   2 -1.000000  0.000000  0.000000       31.61100            
 290   SMTRY2   2  0.000000 -1.000000  0.000000        0.00000            
 290   SMTRY3   2  0.000000  0.000000  1.000000       21.04400            
 290   SMTRY1   3 -1.000000  0.000000  0.000000        0.00000            
 290   SMTRY2   3  0.000000  1.000000  0.000000       44.51950            
 290   SMTRY3   3  0.000000  0.000000 -1.000000       21.04400            
 290   SMTRY1   4  1.000000  0.000000  0.000000       31.61100            
 290   SMTRY2   4  0.000000 -1.000000  0.000000       44.51950            
 290   SMTRY3   4  0.000000  0.000000 -1.000000        0.00000            
 290                                                                      
 290 REMARK: NULL                                                         
 300                                                                      
 300 BIOMOLECULE: 1                                                       
 300 SEE REMARK 350 FOR THE AUTHOR PROVIDED AND/OR PROGRAM                
 300 GENERATED ASSEMBLY INFORMATION FOR THE STRUCTURE IN                  
 300 THIS ENTRY. THE REMARK MAY ALSO PROVIDE INFORMATION ON               
 300 BURIED SURFACE AREA.                                                 
 350                                                                      
 350 COORDINATES FOR A COMPLETE MULTIMER REPRESENTING THE KNOWN           
 350 BIOLOGICALLY SIGNIFICANT OLIGOMERIZATION STATE OF THE                
 350 MOLECULE CAN BE GENERATED BY APPLYING BIOMT TRANSFORMATIONS          
 350 GIVEN BELOW.  BOTH NON-CRYSTALLOGRAPHIC AND                          
 350 CRYSTALLOGRAPHIC OPERATIONS ARE GIVEN.                               
 350                                                                      
 350 BIOMOLECULE: 1                                                       
 350 AUTHOR DETERMINED BIOLOGICAL UNIT: MONOMERIC                         
 350 APPLY THE FOLLOWING TO CHAINS: A                                     
 350   BIOMT1   1  1.000000  0.000000  0.000000        0.00000            
 350   BIOMT2   1  0.000000  1.000000  0.000000        0.00000            
 350   BIOMT3   1  0.000000  0.000000  1.000000        0.00000            
 500                                                                      
 500 GEOMETRY AND STEREOCHEMISTRY                                         
 500 SUBTOPIC: COVALENT BOND LENGTHS                                      
 500                                                                      
 500 THE STEREOCHEMICAL PARAMETERS OF THE FOLLOWING RESIDUES              
 500 HAVE VALUES WHICH DEVIATE FROM EXPECTED VALUES BY MORE               
 500 THAN 6*RMSD (M=MODEL NUMBER; RES=RESIDUE NAME; C=CHAIN               
 500 IDENTIFIER; SSEQ=SEQUENCE NUMBER; I=INSERTION CODE).                 
 500                                                                      
 500 STANDARD TABLE:                                                      
 500 FORMAT: (10X,I3,1X,2(A3,1X,A1,I4,A1,1X,A4,3X),1X,F6.3)               
 500                                                                      
 500 EXPECTED VALUES PROTEIN: ENGH AND HUBER, 1999                        
 500 EXPECTED VALUES NUCLEIC ACID: CLOWNEY ET AL 1996                     
 500                                                                      
 500  M RES CSSEQI ATM1   RES CSSEQI ATM2   DEVIATION                     
 500    GLU A  48   CD    GLU A  48   OE2     0.069                       
 500    GLU A  64   CD    GLU A  64   OE2     0.071                       
 500    GLU A 104   CD    GLU A 104   OE2     0.070                       
 500    GLU A 110   CD    GLU A 110   OE2     0.067                       
 500    GLU A 147   CD    GLU A 147   OE2     0.066                       
 500    GLU A 171   CD    GLU A 171   OE2     0.077                       
 500    GLU A 197   CD    GLU A 197   OE2     0.071                       
 500    GLU A 272   CD    GLU A 272   OE2     0.068                       
 500                                                                      
 500 REMARK: NULL                                                         
 500                                                                      
 500 GEOMETRY AND STEREOCHEMISTRY                                         
 500 SUBTOPIC: COVALENT BOND ANGLES                                       
 500                                                                      
 500 THE STEREOCHEMICAL PARAMETERS OF THE FOLLOWING RESIDUES              
 500 HAVE VALUES WHICH DEVIATE FROM EXPECTED VALUES BY MORE               
 500 THAN 6*RMSD (M=MODEL NUMBER; RES=RESIDUE NAME; C=CHAIN               
 500 IDENTIFIER; SSEQ=SEQUENCE NUMBER; I=INSERTION CODE).                 
 500                                                                      
 500 STANDARD TABLE:                                                      
 500 FORMAT: (10X,I3,1X,A3,1X,A1,I4,A1,3(1X,A4,2X),12X,F5.1)              
 500                                                                      
 500 EXPECTED VALUES PROTEIN: ENGH AND HUBER, 1999                        
 500 EXPECTED VALUES NUCLEIC ACID: CLOWNEY ET AL 1996                     
 500                                                                      
 500  M RES CSSEQI ATM1   ATM2   ATM3                                     
 500    ASP A  35   CB  -  CG  -  OD1 ANGL. DEV. =   5.8 DEGREES          
 500    ASP A  38   CB  -  CG  -  OD2 ANGL. DEV. =  -5.9 DEGREES          
 500    ARG A  43   NE  -  CZ  -  NH1 ANGL. DEV. =   3.3 DEGREES          
 500    ARG A  43   NE  -  CZ  -  NH2 ANGL. DEV. =  -3.4 DEGREES          
 500    ASP A  50   CB  -  CG  -  OD1 ANGL. DEV. =   5.9 DEGREES          
 500    ASP A  50   CB  -  CG  -  OD2 ANGL. DEV. =  -5.8 DEGREES          
 500    ARG A  65   NE  -  CZ  -  NH1 ANGL. DEV. =   3.5 DEGREES          
 500    ASP A 101   CB  -  CG  -  OD2 ANGL. DEV. =  -5.5 DEGREES          
 500    ASP A 115   CB  -  CG  -  OD2 ANGL. DEV. =  -5.7 DEGREES          
 500    ASP A 157   CB  -  CG  -  OD1 ANGL. DEV. =   6.1 DEGREES          
 500    ASP A 157   CB  -  CG  -  OD2 ANGL. DEV. =  -6.9 DEGREES          
 500    ASP A 163   CB  -  CG  -  OD2 ANGL. DEV. =  -6.5 DEGREES          
 500    ASP A 176   CB  -  CG  -  OD2 ANGL. DEV. =  -5.5 DEGREES          
 500    ASP A 179   CB  -  CG  -  OD1 ANGL. DEV. =   6.2 DEGREES          
 500    ASP A 209   CB  -  CG  -  OD2 ANGL. DEV. =  -5.8 DEGREES          
 500    ASP A 233   CB  -  CG  -  OD1 ANGL. DEV. =   5.4 DEGREES          
 500    ASP A 271   CB  -  CG  -  OD1 ANGL. DEV. =   7.0 DEGREES          
 500    ASP A 271   CB  -  CG  -  OD2 ANGL. DEV. =  -6.6 DEGREES          
 500    ARG A 273   NE  -  CZ  -  NH2 ANGL. DEV. =  -3.3 DEGREES          
 500    ARG A 275   NE  -  CZ  -  NH1 ANGL. DEV. =   3.4 DEGREES          
 500                                                                      
 500 REMARK: NULL                                                         
 500                                                                      
 500 GEOMETRY AND STEREOCHEMISTRY                                         
 500 SUBTOPIC: TORSION ANGLES                                             
 500                                                                      
 500 TORSION ANGLES OUTSIDE THE EXPECTED RAMACHANDRAN REGIONS:            
 500 (M=MODEL NUMBER; RES=RESIDUE NAME; C=CHAIN IDENTIFIER;               
 500 SSEQ=SEQUENCE NUMBER; I=INSERTION CODE).                             
 500                                                                      
 500 STANDARD TABLE:                                                      
 500 FORMAT:(10X,I3,1X,A3,1X,A1,I4,A1,4X,F7.2,3X,F7.2)                    
 500                                                                      
 500 EXPECTED VALUES: GJ KLEYWEGT AND TA JONES (1996). PHI/PSI-           
 500 CHOLOGY: RAMACHANDRAN REVISITED. STRUCTURE 4, 1395 - 1400            
 500                                                                      
 500  M RES CSSEQI        PSI       PHI                                   
 500    MET A  69     -149.70     55.31                                   
 500    TYR A 105       63.96     70.98                                   
 500    ASN A 175       -1.07     78.40                                   
 500    LEU A 220     -123.75   -102.02                                   
 500    SER A 256       -6.83   -140.71                                   
 500                                                                      
 500 REMARK: NULL                                                         
 800                                                                      
 800 SITE                                                                 
 800 SITE_IDENTIFIER: AC1                                                 
 800 EVIDENCE_CODE: SOFTWARE                                              
 800 SITE_DESCRIPTION: BINDING SITE FOR RESIDUE BJH A 300                 
 900                                                                      
 900 RELATED ENTRIES                                                      
 900 RELATED ID: 1ERM   RELATED DB: PDB                                   
 900 1ERM CONTAINS THE SAME PROTEIN IN COMPLEX WITH A DIFFERENT           
 900 BORONATE INHIBITOR                                                   
 900 RELATED ID: 1ERO   RELATED DB: PDB                                   
 900 1ERO CONTAINS THE SAME PROTEIN IN COMPLEX WITH A DIFFERENT           
 900 BORONATE INHIBITOR                                                   

>  <DBREF>
 1ERQ A   26   288  UNP    P62593   BLAT_ECOLI      24    286             

>  <SEQRES>
   1 A  263  HIS PRO GLU THR LEU VAL LYS VAL LYS ASP ALA GLU ASP          
   2 A  263  GLN LEU GLY ALA ARG VAL GLY TYR ILE GLU LEU ASP LEU          
   3 A  263  ASN SER GLY LYS ILE LEU GLU SER PHE ARG PRO GLU GLU          
   4 A  263  ARG PHE PRO MET MET SER THR PHE LYS VAL LEU LEU CYS          
   5 A  263  GLY ALA VAL LEU SER ARG VAL ASP ALA GLY GLN GLU GLN          
   6 A  263  LEU GLY ARG ARG ILE HIS TYR SER GLN ASN ASP LEU VAL          
   7 A  263  GLU TYR SER PRO VAL THR GLU LYS HIS LEU THR ASP GLY          
   8 A  263  MET THR VAL ARG GLU LEU CYS SER ALA ALA ILE THR MET          
   9 A  263  SER ASP ASN THR ALA ALA ASN LEU LEU LEU THR THR ILE          
  10 A  263  GLY GLY PRO LYS GLU LEU THR ALA PHE LEU HIS ASN MET          
  11 A  263  GLY ASP HIS VAL THR ARG LEU ASP ARG TRP GLU PRO GLU          
  12 A  263  LEU ASN GLU ALA ILE PRO ASN ASP GLU ARG ASP THR THR          
  13 A  263  MET PRO ALA ALA MET ALA THR THR LEU ARG LYS LEU LEU          
  14 A  263  THR GLY GLU LEU LEU THR LEU ALA SER ARG GLN GLN LEU          
  15 A  263  ILE ASP TRP MET GLU ALA ASP LYS VAL ALA GLY PRO LEU          
  16 A  263  LEU ARG SER ALA LEU PRO ALA GLY TRP PHE ILE ALA ASP          
  17 A  263  LYS SER GLY ALA GLY GLU ARG GLY SER ARG GLY ILE ILE          
  18 A  263  ALA ALA LEU GLY PRO ASP GLY LYS PRO SER ARG ILE VAL          
  19 A  263  VAL ILE TYR THR THR GLY SER GLN ALA THR MET ASP GLU          
  20 A  263  ARG ASN ARG GLN ILE ALA GLU ILE GLY ALA SER LEU ILE          
  21 A  263  LYS HIS TRP                                                  

>  <MODRES>
 1ERQ SER A   70  SER  COVALENT LINK WITH BJH                             

>  <HET>
 BJH  A 300      19                                                       

>  <HETNAM>
     BJH 1(R)-1-ACETAMIDO-2-(3-CARBOXY-2-HYDROXYPHENYL)ETHYL              
   2 BJH  BORONIC ACID                                                    

>  <FORMUL>
   2  BJH    C11 H14 B N O6                                               
   3  HOH   *121(H2 O)                                                    

>  <HELIX>
   1   1 HIS A   26  GLY A   41  1                                  16    
   2   2 THR A   71  ALA A   86  1                                  16    
   3   3 SER A   98  LEU A  102  5                                   5    
   4   4 VAL A  108  HIS A  112  5                                   5    
   5   5 VAL A  119  MET A  129  1                                  11    
   6   6 ASP A  131  GLY A  143  1                                  13    
   7   7 GLY A  144  MET A  155  1                                  12    
   8   8 PRO A  167  GLU A  171  5                                   5    
   9   9 MET A  182  GLY A  196  1                                  15    
  10  10 THR A  200  ALA A  213  1                                  14    
  11  11 LEU A  220  ALA A  224  5                                   5    
  12  12 THR A  269  HIS A  287  1                                  19    

>  <SHEET>
   1   A 5 ILE A  56  PHE A  60  0                                        
   2   A 5 ARG A  43  ASP A  50 -1  N  TYR A  46   O  PHE A  60           
   3   A 5 ARG A 257  THR A 264 -1  O  ILE A 258   N  LEU A  49           
   4   A 5 ARG A 243  GLY A 250 -1  O  ARG A 243   N  THR A 263           
   5   A 5 PHE A 230  ALA A 237 -1  N  PHE A 230   O  GLY A 250           
   1   B 2 PHE A  66  PRO A  67  0                                        
   2   B 2 THR A 180  THR A 181 -1  O  THR A 181   N  PHE A  66           
   1   C 2 ARG A  94  ILE A  95  0                                        
   2   C 2 MET A 117  THR A 118 -1  O  MET A 117   N  ILE A  95           

>  <SSBOND>
   1 CYS A   77    CYS A  123                          1555   1555  2.06  

>  <LINK>
       OG  SER A  70                 B   BJH A 300     1555   1555  1.45  

>  <CISPEP>
   1 GLU A  166    PRO A  167          0         4.63                     

>  <SITE>
   1 AC1 15 MET A  69  SER A  70  LYS A  73  TYR A 105                    
   2 AC1 15 SER A 130  ASN A 132  GLU A 166  ASN A 170                    
   3 AC1 15 LYS A 234  SER A 235  GLY A 236  ALA A 237                    
   4 AC1 15 ARG A 243  HOH A 510  HOH A 533                               

>  <ORIGX1>
      1.000000  0.000000  0.000000        0.00000                         

>  <ORIGX2>
      0.000000  1.000000  0.000000        0.00000                         

>  <ORIGX3>
      0.000000  0.000000  1.000000        0.00000                         

>  <SCALE1>
      0.015817  0.000000  0.000000        0.00000                         

>  <SCALE2>
      0.000000  0.011231  0.000000        0.00000                         

>  <SCALE3>
      0.000000  0.000000  0.023760        0.00000                         

>  <MASTER>
      275    0    1   12    9    0    4    6 2167    1   22   21          

$$$$
