start_structures/Ligand_Substrate/Ligand_Complex_Stripped/BJI_1ERM.pdb
 OpenBabel08222315203D

 24 24  0  0  1  0  0  0  0  0999 V2000
   36.0900   35.0620   31.3270 N   0  0  0  0  0  0  0  0  0  0  0  0
   36.2060   35.7230   30.0340 C   0  0  2  0  0  0  0  0  0  0  0  0
   35.5450   35.0070   28.8700 C   0  0  0  0  0  0  0  0  0  0  0  0
   35.5150   35.5010   27.7630 O   0  0  0  0  0  0  0  0  0  0  0  0
   37.6600   35.9630   29.7290 C   0  0  0  0  0  0  0  0  0  0  0  0
   38.1560   37.0430   30.5080 O   0  0  0  0  0  0  0  0  0  0  0  0
   40.9070   38.3460   31.7430 C   0  0  0  0  0  0  0  0  0  0  0  0
   39.6290   37.9240   32.4420 C   0  0  2  0  0  0  0  0  0  0  0  0
   40.0350   37.4950   33.7900 N   0  0  0  0  0  0  0  0  0  0  0  0
   40.4830   38.2740   34.7960 C   0  0  0  0  0  0  0  0  0  0  0  0
   40.8420   37.5320   36.1030 C   0  0  0  0  0  0  0  0  0  0  0  0
   40.6550   39.4990   34.7000 O   0  0  0  0  0  0  0  0  0  0  0  0
   42.0280   33.8090   29.2100 C   0  0  0  0  0  0  0  0  0  0  0  0
   41.4730   34.2630   28.2000 O   0  0  0  0  0  0  0  0  0  0  0  0
   42.5250   32.6870   29.2880 O   0  0  0  0  0  0  0  0  0  0  0  0
   38.2570   36.8980   31.8840 B   0  0  0  0  0  0  0  0  0  0  0  0
   38.6010   35.4410   32.3390 O   0  0  0  0  0  0  0  0  0  0  0  0
   42.7080   36.8280   32.4440 C   0  0  0  0  0  0  0  0  0  0  0  0
   41.5400   36.9600   31.5000 C   0  0  0  0  0  0  0  0  0  0  0  0
   43.6720   35.6460   32.3200 C   0  0  0  0  0  0  0  0  0  0  0  0
   41.3370   35.9110   30.4380 C   0  0  0  0  0  0  0  0  0  0  0  0
   43.4090   34.5510   31.3090 C   0  0  0  0  0  0  0  0  0  0  0  0
   42.2750   34.7590   30.3580 C   0  0  0  0  0  0  0  0  0  0  0  0
   37.0300   37.3850   32.6460 O   0  0  0  0  0  0  0  0  0  0  0  0
  2  1  1  1  0  0  0
  3  2  1  0  0  0  0
  4  3  2  0  0  0  0
  5  2  1  0  0  0  0
  5  6  1  0  0  0  0
  6 16  1  0  0  0  0
  7 19  1  0  0  0  0
  8  7  1  6  0  0  0
  8  9  1  0  0  0  0
  8 16  1  0  0  0  0
  9 10  1  0  0  0  0
 10 11  1  0  0  0  0
 10 12  2  0  0  0  0
 13 14  2  0  0  0  0
 13 15  1  0  0  0  0
 13 23  1  0  0  0  0
 16 17  1  0  0  0  0
 16 24  1  0  0  0  0
 18 19  2  0  0  0  0
 18 20  1  0  0  0  0
 19 21  1  0  0  0  0
 20 22  2  0  0  0  0
 21 23  2  0  0  0  0
 22 23  1  0  0  0  0
M  END
>  <HEADER>
    HYDROLASE                               06-APR-00   1ERM              

>  <TITLE>
    X-RAY CRYSTAL STRUCTURE OF TEM-1 BETA LACTAMASE IN COMPLEX WITH A     
   2 DESIGNED BORONIC ACID INHIBITOR (1R)-1-ACETAMIDO-2-(3-CARBOXYPHENYL) 
   3 ETHANE BORONIC ACID                                                  

>  <COMPND>
    MOL_ID: 1;                                                            
   2 MOLECULE: TEM-1 BETA-LACTAMASE;                                      
   3 CHAIN: A;                                                            
   4 EC: 3.5.2.6;                                                         
   5 ENGINEERED: YES                                                      

>  <SOURCE>
    MOL_ID: 1;                                                            
   2 ORGANISM_SCIENTIFIC: ESCHERICHIA COLI;                               
   3 ORGANISM_TAXID: 562;                                                 
   4 EXPRESSION_SYSTEM: ESCHERICHIA COLI;                                 
   5 EXPRESSION_SYSTEM_TAXID: 562;                                        
   6 EXPRESSION_SYSTEM_VECTOR_TYPE: PLASMID;                              
   7 EXPRESSION_SYSTEM_PLASMID: PUC118                                    

>  <KEYWDS>
    BETA-LACTAMASE, STRUCTURE-BASED DESIGN, BORONATE INHIBITOR, HYDROLASE 

>  <EXPDTA>
    X-RAY DIFFRACTION                                                     

>  <AUTHOR>
    S.NESS,R.MARTIN,A.M.KINDLER,M.PAETZEL,M.GOLD,J.B.JONES,               
   2 N.C.J.STRYNADKA                                                      

>  <REVDAT>
   5   20-JUN-12 1ERM    1       HETNAM VERSN                             
   4   24-FEB-09 1ERM    1       VERSN                                    
   3   01-APR-03 1ERM    1       JRNL                                     
   2   20-DEC-00 1ERM    1       REMARK                                   
   1   10-MAY-00 1ERM    0                                                

>  <JRNL>
      AUTH   S.NESS,R.MARTIN,A.M.KINDLER,M.PAETZEL,M.GOLD,S.E.JENSEN,     
      AUTH 2 J.B.JONES,N.C.STRYNADKA                                      
      TITL   STRUCTURE-BASED DESIGN GUIDES THE IMPROVED EFFICACY OF       
      TITL 2 DEACYLATION TRANSITION STATE ANALOGUE INHIBITORS OF TEM-1    
      TITL 3 BETA-LACTAMASE(,).                                           
      REF    BIOCHEMISTRY                  V.  39  5312 2000              
      REFN                   ISSN 0006-2960                               
      PMID   10820001                                                     
      DOI    10.1021/BI992505B                                            

>  <REMARK>
   1                                                                      
   1 REFERENCE 1                                                          
   1  AUTH   N.C.J.STRYNADKA,R.MARTIN,S.E.JENSEN,M.GOLD,J.B.JONES         
   1  TITL   STRUCTURE-BASED DESIGN OF A POTENT TRANSITION STATE ANALOGUE 
   1  TITL 2 FOR TEM-1 BETA-LACTAMASE                                     
   1  REF    NAT.STRUCT.BIOL.              V.   3   688 1996              
   1  REFN                   ISSN 1072-8368                               
   2                                                                      
   2 RESOLUTION.    1.70 ANGSTROMS.                                       
   3                                                                      
   3 REFINEMENT.                                                          
   3   PROGRAM     : TNT                                                  
   3   AUTHORS     : TRONRUD,TEN EYCK,MATTHEWS                            
   3                                                                      
   3  DATA USED IN REFINEMENT.                                            
   3   RESOLUTION RANGE HIGH (ANGSTROMS) : 1.70                           
   3   RESOLUTION RANGE LOW  (ANGSTROMS) : 20.00                          
   3   DATA CUTOFF            (SIGMA(F)) : 0.000                          
   3   COMPLETENESS FOR RANGE        (%) : 82.0                           
   3   NUMBER OF REFLECTIONS             : 22036                          
   3                                                                      
   3  USING DATA ABOVE SIGMA CUTOFF.                                      
   3   CROSS-VALIDATION METHOD          : NULL                            
   3   FREE R VALUE TEST SET SELECTION  : NULL                            
   3   R VALUE     (WORKING + TEST SET) : 0.177                           
   3   R VALUE            (WORKING SET) : 0.177                           
   3   FREE R VALUE                     : NULL                            
   3   FREE R VALUE TEST SET SIZE   (%) : NULL                            
   3   FREE R VALUE TEST SET COUNT      : 0                               
   3                                                                      
   3  USING ALL DATA, NO SIGMA CUTOFF.                                    
   3   R VALUE   (WORKING + TEST SET, NO CUTOFF) : 0.1770                 
   3   R VALUE          (WORKING SET, NO CUTOFF) : NULL                   
   3   FREE R VALUE                  (NO CUTOFF) : NULL                   
   3   FREE R VALUE TEST SET SIZE (%, NO CUTOFF) : NULL                   
   3   FREE R VALUE TEST SET COUNT   (NO CUTOFF) : NULL                   
   3   TOTAL NUMBER OF REFLECTIONS   (NO CUTOFF) : 22036                  
   3                                                                      
   3  NUMBER OF NON-HYDROGEN ATOMS USED IN REFINEMENT.                    
   3   PROTEIN ATOMS            : 2028                                    
   3   NUCLEIC ACID ATOMS       : 0                                       
   3   HETEROGEN ATOMS          : 18                                      
   3   SOLVENT ATOMS            : 137                                     
   3                                                                      
   3  WILSON B VALUE (FROM FCALC, A**2) : 19.000                          
   3                                                                      
   3  RMS DEVIATIONS FROM IDEAL VALUES.    RMS    WEIGHT  COUNT           
   3   BOND LENGTHS                 (A) : 0.016 ; NULL  ; NULL            
   3   BOND ANGLES            (DEGREES) : 1.900 ; NULL  ; NULL            
   3   TORSION ANGLES         (DEGREES) : NULL  ; NULL  ; NULL            
   3   PSEUDOROTATION ANGLES  (DEGREES) : NULL  ; NULL  ; NULL            
   3   TRIGONAL CARBON PLANES       (A) : NULL  ; NULL  ; NULL            
   3   GENERAL PLANES               (A) : NULL  ; NULL  ; NULL            
   3   ISOTROPIC THERMAL FACTORS (A**2) : NULL  ; NULL  ; NULL            
   3   NON-BONDED CONTACTS          (A) : NULL  ; NULL  ; NULL            
   3                                                                      
   3  INCORRECT CHIRAL-CENTERS (COUNT) : NULL                             
   3                                                                      
   3  BULK SOLVENT MODELING.                                              
   3   METHOD USED : NULL                                                 
   3   KSOL        : NULL                                                 
   3   BSOL        : NULL                                                 
   3                                                                      
   3  RESTRAINT LIBRARIES.                                                
   3   STEREOCHEMISTRY : BOND LENGTH = 0.8   BOND ANGLE = 0.8   TRY       
   3                     PLANE = 1.0 GEN. PLANE 1.0 BAD CONTACTS = 12     
   3                     TEMP. = 3                                        
   3   ISOTROPIC THERMAL FACTOR RESTRAINTS : NULL                         
   3                                                                      
   3  OTHER REFINEMENT REMARKS: NULL                                      
   4                                                                      
   4 1ERM COMPLIES WITH FORMAT V. 3.30, 13-JUL-11                         
 100                                                                      
 100 THIS ENTRY HAS BEEN PROCESSED BY RCSB ON 12-APR-00.                  
 100 THE RCSB ID CODE IS RCSB010838.                                      
 200                                                                      
 200 EXPERIMENTAL DETAILS                                                 
 200  EXPERIMENT TYPE                : X-RAY DIFFRACTION                  
 200  DATE OF DATA COLLECTION        : 01-JAN-96                          
 200  TEMPERATURE           (KELVIN) : 298.0                              
 200  PH                             : 8.0                                
 200  NUMBER OF CRYSTALS USED        : 1                                  
 200                                                                      
 200  SYNCHROTRON              (Y/N) : N                                  
 200  RADIATION SOURCE               : ROTATING ANODE                     
 200  BEAMLINE                       : NULL                               
 200  X-RAY GENERATOR MODEL          : RIGAKU                             
 200  MONOCHROMATIC OR LAUE    (M/L) : M                                  
 200  WAVELENGTH OR RANGE        (A) : 1.5418                             
 200  MONOCHROMATOR                  : NULL                               
 200  OPTICS                         : NULL                               
 200                                                                      
 200  DETECTOR TYPE                  : AREA DETECTOR                      
 200  DETECTOR MANUFACTURER          : XUONG-HAMLIN MULTIWIRE             
 200  INTENSITY-INTEGRATION SOFTWARE : SDMS                               
 200  DATA SCALING SOFTWARE          : SDMS                               
 200                                                                      
 200  NUMBER OF UNIQUE REFLECTIONS   : 93628                              
 200  RESOLUTION RANGE HIGH      (A) : 1.750                              
 200  RESOLUTION RANGE LOW       (A) : 20.000                             
 200  REJECTION CRITERIA  (SIGMA(I)) : 2.000                              
 200                                                                      
 200 OVERALL.                                                             
 200  COMPLETENESS FOR RANGE     (%) : 92.0                               
 200  DATA REDUNDANCY                : 5.000                              
 200  R MERGE                    (I) : 0.06900                            
 200  R SYM                      (I) : NULL                               
 200  <I/SIGMA(I)> FOR THE DATA SET  : 13.0000                            
 200                                                                      
 200 IN THE HIGHEST RESOLUTION SHELL.                                     
 200  HIGHEST RESOLUTION SHELL, RANGE HIGH (A) : 1.75                     
 200  HIGHEST RESOLUTION SHELL, RANGE LOW  (A) : 1.87                     
 200  COMPLETENESS FOR SHELL     (%) : 88.0                               
 200  DATA REDUNDANCY IN SHELL       : 3.00                               
 200  R MERGE FOR SHELL          (I) : 0.13900                            
 200  R SYM FOR SHELL            (I) : NULL                               
 200  <I/SIGMA(I)> FOR SHELL         : NULL                               
 200                                                                      
 200 DIFFRACTION PROTOCOL: SINGLE WAVELENGTH                              
 200 METHOD USED TO DETERMINE THE STRUCTURE: NULL                         
 200 SOFTWARE USED: MLPHARE                                               
 200 STARTING MODEL: NULL                                                 
 200                                                                      
 200 REMARK: NULL                                                         
 280                                                                      
 280 CRYSTAL                                                              
 280 SOLVENT CONTENT, VS   (%): 39.77                                     
 280 MATTHEWS COEFFICIENT, VM (ANGSTROMS**3/DA): 2.04                     
 280                                                                      
 280 CRYSTALLIZATION CONDITIONS: PHOSPHATE, PH 8.0, VAPOR DIFFUSION,      
 280  HANGING DROP, TEMPERATURE 298.0K                                    
 290                                                                      
 290 CRYSTALLOGRAPHIC SYMMETRY                                            
 290 SYMMETRY OPERATORS FOR SPACE GROUP: P 21 21 21                       
 290                                                                      
 290      SYMOP   SYMMETRY                                                
 290     NNNMMM   OPERATOR                                                
 290       1555   X,Y,Z                                                   
 290       2555   -X+1/2,-Y,Z+1/2                                         
 290       3555   -X,Y+1/2,-Z+1/2                                         
 290       4555   X+1/2,-Y+1/2,-Z                                         
 290                                                                      
 290     WHERE NNN -> OPERATOR NUMBER                                     
 290           MMM -> TRANSLATION VECTOR                                  
 290                                                                      
 290 CRYSTALLOGRAPHIC SYMMETRY TRANSFORMATIONS                            
 290 THE FOLLOWING TRANSFORMATIONS OPERATE ON THE ATOM/HETATM             
 290 RECORDS IN THIS ENTRY TO PRODUCE CRYSTALLOGRAPHICALLY                
 290 RELATED MOLECULES.                                                   
 290   SMTRY1   1  1.000000  0.000000  0.000000        0.00000            
 290   SMTRY2   1  0.000000  1.000000  0.000000        0.00000            
 290   SMTRY3   1  0.000000  0.000000  1.000000        0.00000            
 290   SMTRY1   2 -1.000000  0.000000  0.000000       31.51500            
 290   SMTRY2   2  0.000000 -1.000000  0.000000        0.00000            
 290   SMTRY3   2  0.000000  0.000000  1.000000       21.08000            
 290   SMTRY1   3 -1.000000  0.000000  0.000000        0.00000            
 290   SMTRY2   3  0.000000  1.000000  0.000000       44.53000            
 290   SMTRY3   3  0.000000  0.000000 -1.000000       21.08000            
 290   SMTRY1   4  1.000000  0.000000  0.000000       31.51500            
 290   SMTRY2   4  0.000000 -1.000000  0.000000       44.53000            
 290   SMTRY3   4  0.000000  0.000000 -1.000000        0.00000            
 290                                                                      
 290 REMARK: NULL                                                         
 300                                                                      
 300 BIOMOLECULE: 1                                                       
 300 SEE REMARK 350 FOR THE AUTHOR PROVIDED AND/OR PROGRAM                
 300 GENERATED ASSEMBLY INFORMATION FOR THE STRUCTURE IN                  
 300 THIS ENTRY. THE REMARK MAY ALSO PROVIDE INFORMATION ON               
 300 BURIED SURFACE AREA.                                                 
 350                                                                      
 350 COORDINATES FOR A COMPLETE MULTIMER REPRESENTING THE KNOWN           
 350 BIOLOGICALLY SIGNIFICANT OLIGOMERIZATION STATE OF THE                
 350 MOLECULE CAN BE GENERATED BY APPLYING BIOMT TRANSFORMATIONS          
 350 GIVEN BELOW.  BOTH NON-CRYSTALLOGRAPHIC AND                          
 350 CRYSTALLOGRAPHIC OPERATIONS ARE GIVEN.                               
 350                                                                      
 350 BIOMOLECULE: 1                                                       
 350 AUTHOR DETERMINED BIOLOGICAL UNIT: MONOMERIC                         
 350 APPLY THE FOLLOWING TO CHAINS: A                                     
 350   BIOMT1   1  1.000000  0.000000  0.000000        0.00000            
 350   BIOMT2   1  0.000000  1.000000  0.000000        0.00000            
 350   BIOMT3   1  0.000000  0.000000  1.000000        0.00000            
 500                                                                      
 500 GEOMETRY AND STEREOCHEMISTRY                                         
 500 SUBTOPIC: COVALENT BOND LENGTHS                                      
 500                                                                      
 500 THE STEREOCHEMICAL PARAMETERS OF THE FOLLOWING RESIDUES              
 500 HAVE VALUES WHICH DEVIATE FROM EXPECTED VALUES BY MORE               
 500 THAN 6*RMSD (M=MODEL NUMBER; RES=RESIDUE NAME; C=CHAIN               
 500 IDENTIFIER; SSEQ=SEQUENCE NUMBER; I=INSERTION CODE).                 
 500                                                                      
 500 STANDARD TABLE:                                                      
 500 FORMAT: (10X,I3,1X,2(A3,1X,A1,I4,A1,1X,A4,3X),1X,F6.3)               
 500                                                                      
 500 EXPECTED VALUES PROTEIN: ENGH AND HUBER, 1999                        
 500 EXPECTED VALUES NUCLEIC ACID: CLOWNEY ET AL 1996                     
 500                                                                      
 500  M RES CSSEQI ATM1   RES CSSEQI ATM2   DEVIATION                     
 500    GLU A  48   CB    GLU A  48   CG     -0.122                       
 500    LYS A 146   CD    LYS A 146   CE      0.160                       
 500    ILE A 173   CG1   ILE A 173   CD1     1.556                       
 500    ALA A 184   CA    ALA A 184   CB      0.148                       
 500                                                                      
 500 REMARK: NULL                                                         
 500                                                                      
 500 GEOMETRY AND STEREOCHEMISTRY                                         
 500 SUBTOPIC: COVALENT BOND ANGLES                                       
 500                                                                      
 500 THE STEREOCHEMICAL PARAMETERS OF THE FOLLOWING RESIDUES              
 500 HAVE VALUES WHICH DEVIATE FROM EXPECTED VALUES BY MORE               
 500 THAN 6*RMSD (M=MODEL NUMBER; RES=RESIDUE NAME; C=CHAIN               
 500 IDENTIFIER; SSEQ=SEQUENCE NUMBER; I=INSERTION CODE).                 
 500                                                                      
 500 STANDARD TABLE:                                                      
 500 FORMAT: (10X,I3,1X,A3,1X,A1,I4,A1,3(1X,A4,2X),12X,F5.1)              
 500                                                                      
 500 EXPECTED VALUES PROTEIN: ENGH AND HUBER, 1999                        
 500 EXPECTED VALUES NUCLEIC ACID: CLOWNEY ET AL 1996                     
 500                                                                      
 500  M RES CSSEQI ATM1   ATM2   ATM3                                     
 500    ILE A 173   CB  -  CG1 -  CD1 ANGL. DEV. = -62.0 DEGREES          
 500    ASP A 271   CB  -  CG  -  OD1 ANGL. DEV. =   5.8 DEGREES          
 500                                                                      
 500 REMARK: NULL                                                         
 500                                                                      
 500 GEOMETRY AND STEREOCHEMISTRY                                         
 500 SUBTOPIC: TORSION ANGLES                                             
 500                                                                      
 500 TORSION ANGLES OUTSIDE THE EXPECTED RAMACHANDRAN REGIONS:            
 500 (M=MODEL NUMBER; RES=RESIDUE NAME; C=CHAIN IDENTIFIER;               
 500 SSEQ=SEQUENCE NUMBER; I=INSERTION CODE).                             
 500                                                                      
 500 STANDARD TABLE:                                                      
 500 FORMAT:(10X,I3,1X,A3,1X,A1,I4,A1,4X,F7.2,3X,F7.2)                    
 500                                                                      
 500 EXPECTED VALUES: GJ KLEYWEGT AND TA JONES (1996). PHI/PSI-           
 500 CHOLOGY: RAMACHANDRAN REVISITED. STRUCTURE 4, 1395 - 1400            
 500                                                                      
 500  M RES CSSEQI        PSI       PHI                                   
 500    MET A  69     -147.57     55.82                                   
 500    ASN A 175       -1.16     74.82                                   
 500    LEU A 220     -122.58   -100.83                                   
 500    SER A 256       -3.65   -143.07                                   
 500                                                                      
 500 REMARK: NULL                                                         
 500                                                                      
 500 GEOMETRY AND STEREOCHEMISTRY                                         
 500 SUBTOPIC: PLANAR GROUPS                                              
 500                                                                      
 500 PLANAR GROUPS IN THE FOLLOWING RESIDUES HAVE A TOTAL                 
 500 RMS DISTANCE OF ALL ATOMS FROM THE BEST-FIT PLANE                    
 500 BY MORE THAN AN EXPECTED VALUE OF 6*RMSD, WITH AN                    
 500 RMSD 0.02 ANGSTROMS, OR AT LEAST ONE ATOM HAS                        
 500 AN RMSD GREATER THAN THIS VALUE                                      
 500 (M=MODEL NUMBER; RES=RESIDUE NAME; C=CHAIN IDENTIFIER;               
 500 SSEQ=SEQUENCE NUMBER; I=INSERTION CODE).                             
 500                                                                      
 500  M RES CSSEQI        RMS     TYPE                                    
 500    TYR A 105         0.07    SIDE CHAIN                              
 500                                                                      
 500 REMARK: NULL                                                         
 500                                                                      
 500 GEOMETRY AND STEREOCHEMISTRY                                         
 500 SUBTOPIC: CHIRAL CENTERS                                             
 500                                                                      
 500 UNEXPECTED CONFIGURATION OF THE FOLLOWING CHIRAL                     
 500 CENTER(S) USING IMPROPER CA--C--CB--N CHIRALITY                      
 500 FOR AMINO ACIDS AND C1'--O4'--N1(N9)--C2' FOR                        
 500 NUCLEIC ACIDS OR EQUIVALENT ANGLE                                    
 500 M=MODEL NUMBER; RES=RESIDUE NAME; C=CHAIN                            
 500 IDENTIFIER; SSEQ=SEQUENCE NUMBER; I=INSERTION CODE                   
 500                                                                      
 500 STANDARD TABLE:                                                      
 500 FORMAT: (10X,I3,1X,A3,1X,A1,I4,A1,6X,F5.1,6X,A1,10X,A1,3X,A16)       
 500                                                                      
 500  M RES CSSEQI    IMPROPER   EXPECTED   FOUND DETAILS                 
 500    LYS A  73        24.7      L          L   OUTSIDE RANGE           
 500    THR A 114        17.7      L          L   OUTSIDE RANGE           
 500    ALA A 184        22.6      L          L   OUTSIDE RANGE           
 500                                                                      
 500 REMARK: NULL                                                         
 800                                                                      
 800 SITE                                                                 
 800 SITE_IDENTIFIER: AC1                                                 
 800 EVIDENCE_CODE: SOFTWARE                                              
 800 SITE_DESCRIPTION: BINDING SITE FOR RESIDUE BJI A 500                 
 900                                                                      
 900 RELATED ENTRIES                                                      
 900 RELATED ID: 1ERO   RELATED DB: PDB                                   
 900 1ERO CONTAINS THE SAME PROTEIN IN COMPLEX WITH A DIFFERENT           
 900 BORONATE INHIBITOR.                                                  
 900 RELATED ID: 1ERQ   RELATED DB: PDB                                   
 900 1ERQ CONTAINS THE SAME PROTEIN IN COMPLEX WITH A DIFFERENT           
 900 BORONATE INHIBITOR.                                                  

>  <DBREF>
 1ERM A   26   288  UNP    P62593   BLAT_ECOLI      24    286             

>  <SEQRES>
   1 A  263  HIS PRO GLU THR LEU VAL LYS VAL LYS ASP ALA GLU ASP          
   2 A  263  GLN LEU GLY ALA ARG VAL GLY TYR ILE GLU LEU ASP LEU          
   3 A  263  ASN SER GLY LYS ILE LEU GLU SER PHE ARG PRO GLU GLU          
   4 A  263  ARG PHE PRO MET MET SER THR PHE LYS VAL LEU LEU CYS          
   5 A  263  GLY ALA VAL LEU SER ARG VAL ASP ALA GLY GLN GLU GLN          
   6 A  263  LEU GLY ARG ARG ILE HIS TYR SER GLN ASN ASP LEU VAL          
   7 A  263  GLU TYR SER PRO VAL THR GLU LYS HIS LEU THR ASP GLY          
   8 A  263  MET THR VAL ARG GLU LEU CYS SER ALA ALA ILE THR MET          
   9 A  263  SER ASP ASN THR ALA ALA ASN LEU LEU LEU THR THR ILE          
  10 A  263  GLY GLY PRO LYS GLU LEU THR ALA PHE LEU HIS ASN MET          
  11 A  263  GLY ASP HIS VAL THR ARG LEU ASP ARG TRP GLU PRO GLU          
  12 A  263  LEU ASN GLU ALA ILE PRO ASN ASP GLU ARG ASP THR THR          
  13 A  263  MET PRO ALA ALA MET ALA THR THR LEU ARG LYS LEU LEU          
  14 A  263  THR GLY GLU LEU LEU THR LEU ALA SER ARG GLN GLN LEU          
  15 A  263  ILE ASP TRP MET GLU ALA BHD LYS VAL ALA GLY PRO LEU          
  16 A  263  LEU ARG SER ALA LEU PRO ALA GLY TRP PHE ILE ALA ASP          
  17 A  263  LYS SER GLY ALA GLY GLU ARG GLY SER ARG GLY ILE ILE          
  18 A  263  ALA ALA LEU GLY PRO ASP GLY LYS PRO SER ARG ILE VAL          
  19 A  263  VAL ILE TYR THR THR GLY SER GLN ALA THR MET ASP GLU          
  20 A  263  ARG ASN ARG GLN ILE ALA GLU ILE GLY ALA SER LEU ILE          
  21 A  263  LYS HIS TRP                                                  

>  <MODRES>
 1ERM SER A   70  SER  COVALENT LINK WITH BJI                             
 1ERM BHD A  214  ASP  (3S)-3-HYDROXY-L-ASPARTIC ACID                     

>  <HET>
 BHD  A 214       9                                                       
 BJI  A 500      18                                                       

>  <HETNAM>
     BHD (3S)-3-HYDROXY-L-ASPARTIC ACID                                   
     BJI 1(R)-1-ACETAMIDO-2-(3-CARBOXYPHENYL)ETHYL BORONIC ACID           

>  <HETSYN>
     BHD BETA-HYDROXYASPARTIC ACID                                        

>  <FORMUL>
   1  BHD    C4 H7 N O5                                                   
   2  BJI    C11 H14 B N O5                                               
   3  HOH   *137(H2 O)                                                    

>  <HELIX>
   1   1 HIS A   26  GLY A   41  1                                  16    
   2   2 THR A   71  ALA A   86  1                                  16    
   3   3 SER A   98  LEU A  102  5                                   5    
   4   4 VAL A  108  LEU A  113  5                                   6    
   5   5 VAL A  119  SER A  130  1                                  12    
   6   6 ASP A  131  GLY A  143  1                                  13    
   7   7 GLY A  144  MET A  155  1                                  12    
   8   8 PRO A  167  GLU A  171  5                                   5    
   9   9 MET A  182  GLY A  196  1                                  15    
  10  10 THR A  200  ALA A  213  1                                  14    
  11  11 LEU A  220  LEU A  225  5                                   6    
  12  12 THR A  269  HIS A  287  1                                  19    

>  <SHEET>
   1   A 5 ILE A  56  PHE A  60  0                                        
   2   A 5 ARG A  43  ASP A  50 -1  N  TYR A  46   O  PHE A  60           
   3   A 5 ARG A 257  THR A 264 -1  O  ILE A 258   N  LEU A  49           
   4   A 5 ARG A 243  GLY A 250 -1  O  ARG A 243   N  THR A 263           
   5   A 5 PHE A 230  ALA A 237 -1  N  PHE A 230   O  GLY A 250           
   1   B 2 PHE A  66  PRO A  67  0                                        
   2   B 2 THR A 180  THR A 181 -1  O  THR A 181   N  PHE A  66           
   1   C 2 ARG A  94  ILE A  95  0                                        
   2   C 2 MET A 117  THR A 118 -1  O  MET A 117   N  ILE A  95           

>  <SSBOND>
   1 CYS A   77    CYS A  123                          1555   1555  2.03  

>  <LINK>
       OG  SER A  70                 B   BJI A 500     1555   1555  1.39  
       C   ALA A 213                 N   BHD A 214     1555   1555  1.31  
       C   BHD A 214                 N   LYS A 215     1555   1555  1.34  

>  <CISPEP>
   1 GLU A  166    PRO A  167          0         3.36                     

>  <SITE>
   1 AC1 15 MET A  69  SER A  70  LYS A  73  TYR A 105                    
   2 AC1 15 SER A 130  ASN A 132  GLU A 166  ASN A 170                    
   3 AC1 15 LYS A 234  SER A 235  GLY A 236  ALA A 237                    
   4 AC1 15 ARG A 243  HOH A 304  HOH A 341                               

>  <ORIGX1>
      1.000000  0.000000  0.000000        0.00000                         

>  <ORIGX2>
      0.000000  1.000000  0.000000        0.00000                         

>  <ORIGX3>
      0.000000  0.000000  1.000000        0.00000                         

>  <SCALE1>
      0.015865  0.000000  0.000000        0.00000                         

>  <SCALE2>
      0.000000  0.011228  0.000000        0.00000                         

>  <SCALE3>
      0.000000  0.000000  0.023719        0.00000                         

>  <MASTER>
      294    0    2   12    9    0    4    6 2183    1   32   21          

$$$$
