start_structures/Ligand_Substrate/Ligand_Complex_Stripped/BJP_1ERO.pdb
 OpenBabel08222315203D

 40 47  0  0  1  0  0  0  0  0999 V2000
   36.1890   35.0760   31.3370 N   0  0  0  0  0  0  0  0  0  0  0  0
   36.3330   35.7010   30.0110 C   0  0  2  0  0  0  0  0  0  0  0  0
   35.5380   35.0540   28.8190 C   0  0  0  0  0  0  0  0  0  0  0  0
   35.4970   35.6250   27.7080 O   0  0  0  0  0  0  0  0  0  0  0  0
   37.7910   35.9450   29.6740 C   0  0  0  0  0  0  0  0  0  0  0  0
   38.2870   37.1170   30.5170 O   0  0  0  0  0  0  0  0  0  0  0  0
   40.6060   38.2530   31.6170 C   0  0  0  0  0  0  0  0  0  0  0  0
   39.3440   38.1560   32.5030 C   0  0  2  0  0  0  0  0  0  0  0  0
   42.1430   33.5950   29.1060 C   0  0  0  0  0  0  0  0  0  0  0  0
   41.2050   33.4320   28.3110 O   0  0  0  0  0  0  0  0  0  0  0  0
   43.1470   32.8230   29.1750 O   0  0  0  0  0  0  0  0  0  0  0  0
   38.3540   37.0660   31.9790 B   0  0  0  0  0  0  0  0  0  0  0  0
   38.7210   35.7600   32.4630 O   0  0  0  0  0  0  0  0  0  0  0  0
   42.8620   36.8800   32.1550 C   0  0  0  0  0  0  0  0  0  0  0  0
   41.5380   37.0390   31.3630 C   0  0  0  0  0  0  0  0  0  0  0  0
   43.7960   35.6720   31.8850 C   0  0  0  0  0  0  0  0  0  0  0  0
   41.1400   36.0010   30.2940 C   0  0  0  0  0  0  0  0  0  0  0  0
   43.3960   34.6350   30.8060 C   0  0  0  0  0  0  0  0  0  0  0  0
   42.0740   34.8160   30.0300 C   0  0  0  0  0  0  0  0  0  0  0  0
   37.1220   37.5390   32.6150 O   0  0  0  0  0  0  0  0  0  0  0  0
   42.8300   37.8170   35.3760 C   0  0  0  0  0  0  0  0  0  0  0  0
   41.7450   36.6980   36.4750 C   0  0  0  0  0  0  0  0  0  0  0  0
   43.5400   38.9400   34.8940 C   0  0  0  0  0  0  0  0  0  0  0  0
   42.0440   37.0940   37.7780 C   0  0  0  0  0  0  0  0  0  0  0  0
   44.9110   38.8130   34.6150 C   0  0  0  0  0  0  0  0  0  0  0  0
   43.2570   36.7050   38.3380 C   0  0  0  0  0  0  0  0  0  0  0  0
   45.5540   37.5790   34.8020 C   0  0  0  0  0  0  0  0  0  0  0  0
   44.1360   35.8720   37.6360 C   0  0  0  0  0  0  0  0  0  0  0  0
   44.8250   36.4870   35.2960 C   0  0  1  0  0  0  0  0  0  0  0  0
   43.8220   35.4440   36.3420 C   0  0  2  0  0  0  0  0  0  0  0  0
   43.4570   36.5860   35.5060 C   0  0  1  0  0  0  0  0  0  0  0  0
   42.6120   35.8510   35.7660 C   0  0  2  0  0  0  0  0  0  0  0  0
   41.4410   37.7880   35.6230 C   0  0  2  0  0  0  0  0  0  0  0  0
   40.5040   37.0520   35.9370 C   0  0  1  0  0  0  0  0  0  0  0  0
   40.7620   38.4910   34.4220 C   0  0  0  0  0  0  0  0  0  0  0  0
   40.5380   37.8700   34.6190 C   0  0  0  0  0  0  0  0  0  0  0  0
   40.9920   39.6620   34.0870 O   0  0  0  0  0  0  0  0  0  0  0  0
   41.3250   38.7980   34.4260 O   0  0  0  0  0  0  0  0  0  0  0  0
   39.9560   37.7010   33.7310 N   0  0  0  0  0  0  0  0  0  0  0  0
   39.5800   37.5000   33.7770 N   0  0  0  0  0  0  0  0  0  0  0  0
  2  1  1  1  0  0  0
  3  2  1  0  0  0  0
  4  3  2  0  0  0  0
  5  2  1  0  0  0  0
  5  6  1  0  0  0  0
  6 12  1  0  0  0  0
  7 15  1  0  0  0  0
  8  7  1  6  0  0  0
  8 12  1  0  0  0  0
  8 39  1  0  0  0  0
  8 40  1  0  0  0  0
  9 10  2  0  0  0  0
  9 11  1  0  0  0  0
  9 19  1  0  0  0  0
 12 13  1  0  0  0  0
 12 20  1  0  0  0  0
 14 15  2  0  0  0  0
 14 16  1  0  0  0  0
 15 17  1  0  0  0  0
 16 18  2  0  0  0  0
 17 19  2  0  0  0  0
 18 19  1  0  0  0  0
 21 23  2  0  0  0  0
 22 24  2  0  0  0  0
 23 25  1  0  0  0  0
 24 26  1  0  0  0  0
 25 27  2  0  0  0  0
 26 28  2  0  0  0  0
 29 27  1  1  0  0  0
 29 31  1  0  0  0  0
 29 30  1  0  0  0  0
 30 28  1  1  0  0  0
 30 32  1  0  0  0  0
 31 21  1  1  0  0  0
 31 32  1  0  0  0  0
 31 30  1  0  0  0  0
 32 22  1  1  0  0  0
 33 21  1  6  0  0  0
 33 35  1  0  0  0  0
 33 34  1  0  0  0  0
 34 22  1  6  0  0  0
 34 36  1  0  0  0  0
 35 37  2  0  0  0  0
 35 39  1  0  0  0  0
 36 38  2  0  0  0  0
 36 40  1  0  0  0  0
 39 40  1  0  0  0  0
M  END
>  <HEADER>
    HYDROLASE                               06-APR-00   1ERO              

>  <TITLE>
    X-RAY CRYSTAL STRUCTURE OF TEM-1 BETA LACTAMASE IN COMPLEX            
   2 WITH A DESIGNED BORONIC ACID INHIBITOR (1R)-2-                       
   3 PHENYLACETAMIDO-2-(3-CARBOXYPHENYL)ETHYL BORONIC ACID                

>  <COMPND>
    MOL_ID: 1;                                                            
   2 MOLECULE: TEM-1 BETA-LACTAMASE;                                      
   3 CHAIN: A;                                                            
   4 EC: 3.5.2.6;                                                         
   5 ENGINEERED: YES                                                      

>  <SOURCE>
    MOL_ID: 1;                                                            
   2 ORGANISM_SCIENTIFIC: ESCHERICHIA COLI;                               
   3 ORGANISM_TAXID: 562;                                                 
   4 EXPRESSION_SYSTEM: ESCHERICHIA COLI;                                 
   5 EXPRESSION_SYSTEM_TAXID: 562;                                        
   6 EXPRESSION_SYSTEM_VECTOR_TYPE: PLASMID;                              
   7 EXPRESSION_SYSTEM_PLASMID: PUC118                                    

>  <KEYWDS>
    BETA-LACTAMASE, STRUCTURE-BASED DESIGN, BORONATE INHIBITOR,           
   2 HYDROLASE                                                            

>  <EXPDTA>
    X-RAY DIFFRACTION                                                     

>  <AUTHOR>
    S.NESS,R.MARTIN,A.M.KINDLER,M.PAETZEL,M.GOLD,J.B.JONES,               
   2 N.C.J.STRYNADKA                                                      

>  <REVDAT>
   4   24-FEB-09 1ERO    1       VERSN                                    
   3   01-APR-03 1ERO    1       JRNL                                     
   2   20-DEC-00 1ERO    1       REMARK                                   
   1   10-MAY-00 1ERO    0                                                

>  <JRNL>
      AUTH   S.NESS,R.MARTIN,A.M.KINDLER,M.PAETZEL,M.GOLD,                
      AUTH 2 S.E.JENSEN,J.B.JONES,N.C.STRYNADKA                           
      TITL   STRUCTURE-BASED DESIGN GUIDES THE IMPROVED                   
      TITL 2 EFFICACY OF DEACYLATION TRANSITION STATE ANALOGUE            
      TITL 3 INHIBITORS OF TEM-1 BETA-LACTAMASE(,).                       
      REF    BIOCHEMISTRY                  V.  39  5312 2000              
      REFN                   ISSN 0006-2960                               
      PMID   10820001                                                     
      DOI    10.1021/BI992505B                                            

>  <REMARK>
   1                                                                      
   2                                                                      
   2 RESOLUTION.    2.10 ANGSTROMS.                                       
   3                                                                      
   3 REFINEMENT.                                                          
   3   PROGRAM     : TNT                                                  
   3   AUTHORS     : TRONRUD,TEN EYCK,MATTHEWS                            
   3                                                                      
   3  DATA USED IN REFINEMENT.                                            
   3   RESOLUTION RANGE HIGH (ANGSTROMS) : 2.10                           
   3   RESOLUTION RANGE LOW  (ANGSTROMS) : 20.00                          
   3   DATA CUTOFF            (SIGMA(F)) : 0.000                          
   3   COMPLETENESS FOR RANGE        (%) : 84.0                           
   3   NUMBER OF REFLECTIONS             : 11762                          
   3                                                                      
   3  USING DATA ABOVE SIGMA CUTOFF.                                      
   3   CROSS-VALIDATION METHOD          : NULL                            
   3   FREE R VALUE TEST SET SELECTION  : NULL                            
   3   R VALUE     (WORKING + TEST SET) : 0.181                           
   3   R VALUE            (WORKING SET) : 0.181                           
   3   FREE R VALUE                     : NULL                            
   3   FREE R VALUE TEST SET SIZE   (%) : NULL                            
   3   FREE R VALUE TEST SET COUNT      : 0                               
   3                                                                      
   3  USING ALL DATA, NO SIGMA CUTOFF.                                    
   3   R VALUE   (WORKING + TEST SET, NO CUTOFF) : 0.1810                 
   3   R VALUE          (WORKING SET, NO CUTOFF) : NULL                   
   3   FREE R VALUE                  (NO CUTOFF) : NULL                   
   3   FREE R VALUE TEST SET SIZE (%, NO CUTOFF) : NULL                   
   3   FREE R VALUE TEST SET COUNT   (NO CUTOFF) : NULL                   
   3   TOTAL NUMBER OF REFLECTIONS   (NO CUTOFF) : 11762                  
   3                                                                      
   3  NUMBER OF NON-HYDROGEN ATOMS USED IN REFINEMENT.                    
   3   PROTEIN ATOMS            : 2027                                    
   3   NUCLEIC ACID ATOMS       : 0                                       
   3   HETEROGEN ATOMS          : 34                                      
   3   SOLVENT ATOMS            : 63                                      
   3                                                                      
   3  WILSON B VALUE (FROM FCALC, A**2) : 22.000                          
   3                                                                      
   3  RMS DEVIATIONS FROM IDEAL VALUES.    RMS    WEIGHT  COUNT           
   3   BOND LENGTHS                 (A) : 0.018 ; NULL  ; NULL            
   3   BOND ANGLES            (DEGREES) : 3.400 ; NULL  ; NULL            
   3   TORSION ANGLES         (DEGREES) : NULL  ; NULL  ; NULL            
   3   PSEUDOROTATION ANGLES  (DEGREES) : NULL  ; NULL  ; NULL            
   3   TRIGONAL CARBON PLANES       (A) : 0.016 ; NULL  ; NULL            
   3   GENERAL PLANES               (A) : 0.020 ; NULL  ; NULL            
   3   ISOTROPIC THERMAL FACTORS (A**2) : NULL  ; NULL  ; NULL            
   3   NON-BONDED CONTACTS          (A) : NULL  ; NULL  ; NULL            
   3                                                                      
   3  INCORRECT CHIRAL-CENTERS (COUNT) : NULL                             
   3                                                                      
   3  BULK SOLVENT MODELING.                                              
   3   METHOD USED : NULL                                                 
   3   KSOL        : NULL                                                 
   3   BSOL        : NULL                                                 
   3                                                                      
   3  RESTRAINT LIBRARIES.                                                
   3   STEREOCHEMISTRY : BOND LENGTH = 1.0    BOND ANGLE = 1.5            
   3                     TRY PLANES = 1.2 GEN PLANES = 4.0 BAD            
   3                     CONTACTS 12.0 TEMP. = 3.0                        
   3   ISOTROPIC THERMAL FACTOR RESTRAINTS : NULL                         
   3                                                                      
   3  OTHER REFINEMENT REMARKS: NULL                                      
   4                                                                      
   4 1ERO COMPLIES WITH FORMAT V. 3.15, 01-DEC-08                         
 100                                                                      
 100 THIS ENTRY HAS BEEN PROCESSED BY RCSB ON 20-APR-00.                  
 100 THE RCSB ID CODE IS RCSB010839.                                      
 200                                                                      
 200 EXPERIMENTAL DETAILS                                                 
 200  EXPERIMENT TYPE                : X-RAY DIFFRACTION                  
 200  DATE OF DATA COLLECTION        : 02-FEB-99                          
 200  TEMPERATURE           (KELVIN) : 298.0                              
 200  PH                             : 8.0                                
 200  NUMBER OF CRYSTALS USED        : 1                                  
 200                                                                      
 200  SYNCHROTRON              (Y/N) : N                                  
 200  RADIATION SOURCE               : ROTATING ANODE                     
 200  BEAMLINE                       : NULL                               
 200  X-RAY GENERATOR MODEL          : RIGAKU                             
 200  MONOCHROMATIC OR LAUE    (M/L) : M                                  
 200  WAVELENGTH OR RANGE        (A) : 1.5418                             
 200  MONOCHROMATOR                  : NULL                               
 200  OPTICS                         : NULL                               
 200                                                                      
 200  DETECTOR TYPE                  : IMAGE PLATE                        
 200  DETECTOR MANUFACTURER          : RIGAKU RAXIS II                    
 200  INTENSITY-INTEGRATION SOFTWARE : DENZO                              
 200  DATA SCALING SOFTWARE          : SCALEPACK                          
 200                                                                      
 200  NUMBER OF UNIQUE REFLECTIONS   : 14567                              
 200  RESOLUTION RANGE HIGH      (A) : 2.100                              
 200  RESOLUTION RANGE LOW       (A) : 30.000                             
 200  REJECTION CRITERIA  (SIGMA(I)) : 2.000                              
 200                                                                      
 200 OVERALL.                                                             
 200  COMPLETENESS FOR RANGE     (%) : 89.0                               
 200  DATA REDUNDANCY                : 3.000                              
 200  R MERGE                    (I) : 0.04700                            
 200  R SYM                      (I) : NULL                               
 200  <I/SIGMA(I)> FOR THE DATA SET  : 46.6000                            
 200                                                                      
 200 IN THE HIGHEST RESOLUTION SHELL.                                     
 200  HIGHEST RESOLUTION SHELL, RANGE HIGH (A) : 2.07                     
 200  HIGHEST RESOLUTION SHELL, RANGE LOW  (A) : 2.15                     
 200  COMPLETENESS FOR SHELL     (%) : 80.4                               
 200  DATA REDUNDANCY IN SHELL       : 2.00                               
 200  R MERGE FOR SHELL          (I) : 0.16300                            
 200  R SYM FOR SHELL            (I) : NULL                               
 200  <I/SIGMA(I)> FOR SHELL         : NULL                               
 200                                                                      
 200 DIFFRACTION PROTOCOL: SINGLE WAVELENGTH                              
 200 METHOD USED TO DETERMINE THE STRUCTURE: NULL                         
 200 SOFTWARE USED: EPMR                                                  
 200 STARTING MODEL: NULL                                                 
 200                                                                      
 200 REMARK: NULL                                                         
 280                                                                      
 280 CRYSTAL                                                              
 280 SOLVENT CONTENT, VS   (%): 38.06                                     
 280 MATTHEWS COEFFICIENT, VM (ANGSTROMS**3/DA): 1.99                     
 280                                                                      
 280 CRYSTALLIZATION CONDITIONS: PHOSPHATE, PH 8.0, VAPOR DIFFUSION,      
 280  HANGING DROP, TEMPERATURE 298.0K                                    
 290                                                                      
 290 CRYSTALLOGRAPHIC SYMMETRY                                            
 290 SYMMETRY OPERATORS FOR SPACE GROUP: P 21 21 21                       
 290                                                                      
 290      SYMOP   SYMMETRY                                                
 290     NNNMMM   OPERATOR                                                
 290       1555   X,Y,Z                                                   
 290       2555   -X+1/2,-Y,Z+1/2                                         
 290       3555   -X,Y+1/2,-Z+1/2                                         
 290       4555   X+1/2,-Y+1/2,-Z                                         
 290                                                                      
 290     WHERE NNN -> OPERATOR NUMBER                                     
 290           MMM -> TRANSLATION VECTOR                                  
 290                                                                      
 290 CRYSTALLOGRAPHIC SYMMETRY TRANSFORMATIONS                            
 290 THE FOLLOWING TRANSFORMATIONS OPERATE ON THE ATOM/HETATM             
 290 RECORDS IN THIS ENTRY TO PRODUCE CRYSTALLOGRAPHICALLY                
 290 RELATED MOLECULES.                                                   
 290   SMTRY1   1  1.000000  0.000000  0.000000        0.00000            
 290   SMTRY2   1  0.000000  1.000000  0.000000        0.00000            
 290   SMTRY3   1  0.000000  0.000000  1.000000        0.00000            
 290   SMTRY1   2 -1.000000  0.000000  0.000000       30.59500            
 290   SMTRY2   2  0.000000 -1.000000  0.000000        0.00000            
 290   SMTRY3   2  0.000000  0.000000  1.000000       21.05000            
 290   SMTRY1   3 -1.000000  0.000000  0.000000        0.00000            
 290   SMTRY2   3  0.000000  1.000000  0.000000       44.64000            
 290   SMTRY3   3  0.000000  0.000000 -1.000000       21.05000            
 290   SMTRY1   4  1.000000  0.000000  0.000000       30.59500            
 290   SMTRY2   4  0.000000 -1.000000  0.000000       44.64000            
 290   SMTRY3   4  0.000000  0.000000 -1.000000        0.00000            
 290                                                                      
 290 REMARK: NULL                                                         
 300                                                                      
 300 BIOMOLECULE: 1                                                       
 300 SEE REMARK 350 FOR THE AUTHOR PROVIDED AND/OR PROGRAM                
 300 GENERATED ASSEMBLY INFORMATION FOR THE STRUCTURE IN                  
 300 THIS ENTRY. THE REMARK MAY ALSO PROVIDE INFORMATION ON               
 300 BURIED SURFACE AREA.                                                 
 350                                                                      
 350 COORDINATES FOR A COMPLETE MULTIMER REPRESENTING THE KNOWN           
 350 BIOLOGICALLY SIGNIFICANT OLIGOMERIZATION STATE OF THE                
 350 MOLECULE CAN BE GENERATED BY APPLYING BIOMT TRANSFORMATIONS          
 350 GIVEN BELOW.  BOTH NON-CRYSTALLOGRAPHIC AND                          
 350 CRYSTALLOGRAPHIC OPERATIONS ARE GIVEN.                               
 350                                                                      
 350 BIOMOLECULE: 1                                                       
 350 AUTHOR DETERMINED BIOLOGICAL UNIT: MONOMERIC                         
 350 APPLY THE FOLLOWING TO CHAINS: A                                     
 350   BIOMT1   1  1.000000  0.000000  0.000000        0.00000            
 350   BIOMT2   1  0.000000  1.000000  0.000000        0.00000            
 350   BIOMT3   1  0.000000  0.000000  1.000000        0.00000            
 500                                                                      
 500 GEOMETRY AND STEREOCHEMISTRY                                         
 500 SUBTOPIC: CLOSE CONTACTS IN SAME ASYMMETRIC UNIT                     
 500                                                                      
 500 THE FOLLOWING ATOMS ARE IN CLOSE CONTACT.                            
 500                                                                      
 500  ATM1  RES C  SSEQI   ATM2  RES C  SSEQI           DISTANCE          
 500   O    HOH A   528     O    HOH A   556              2.02            
 500                                                                      
 500 REMARK: NULL                                                         
 500                                                                      
 500 GEOMETRY AND STEREOCHEMISTRY                                         
 500 SUBTOPIC: CLOSE CONTACTS                                             
 500                                                                      
 500 THE FOLLOWING ATOMS THAT ARE RELATED BY CRYSTALLOGRAPHIC             
 500 SYMMETRY ARE IN CLOSE CONTACT.  AN ATOM LOCATED WITHIN 0.15          
 500 ANGSTROMS OF A SYMMETRY RELATED ATOM IS ASSUMED TO BE ON A           
 500 SPECIAL POSITION AND IS, THEREFORE, LISTED IN REMARK 375             
 500 INSTEAD OF REMARK 500.  ATOMS WITH NON-BLANK ALTERNATE               
 500 LOCATION INDICATORS ARE NOT INCLUDED IN THE CALCULATIONS.            
 500                                                                      
 500 DISTANCE CUTOFF:                                                     
 500 2.2 ANGSTROMS FOR CONTACTS NOT INVOLVING HYDROGEN ATOMS              
 500 1.6 ANGSTROMS FOR CONTACTS INVOLVING HYDROGEN ATOMS                  
 500                                                                      
 500  ATM1  RES C  SSEQI   ATM2  RES C  SSEQI  SSYMOP   DISTANCE          
 500   O    ALA A   224     O    HOH A   585     4556     1.11            
 500   OE1  GLU A   197     CG   GLU A   279     4456     1.81            
 500   C    ALA A   224     O    HOH A   585     4556     2.14            
 500                                                                      
 500 REMARK: NULL                                                         
 500                                                                      
 500 GEOMETRY AND STEREOCHEMISTRY                                         
 500 SUBTOPIC: COVALENT BOND LENGTHS                                      
 500                                                                      
 500 THE STEREOCHEMICAL PARAMETERS OF THE FOLLOWING RESIDUES              
 500 HAVE VALUES WHICH DEVIATE FROM EXPECTED VALUES BY MORE               
 500 THAN 6*RMSD (M=MODEL NUMBER; RES=RESIDUE NAME; C=CHAIN               
 500 IDENTIFIER; SSEQ=SEQUENCE NUMBER; I=INSERTION CODE).                 
 500                                                                      
 500 STANDARD TABLE:                                                      
 500 FORMAT: (10X,I3,1X,2(A3,1X,A1,I4,A1,1X,A4,3X),1X,F6.3)               
 500                                                                      
 500 EXPECTED VALUES PROTEIN: ENGH AND HUBER, 1999                        
 500 EXPECTED VALUES NUCLEIC ACID: CLOWNEY ET AL 1996                     
 500                                                                      
 500  M RES CSSEQI ATM1   RES CSSEQI ATM2   DEVIATION                     
 500    GLU A  28   CD    GLU A  28   OE2     0.085                       
 500    GLU A  48   CD    GLU A  48   OE2     0.082                       
 500    SER A  70   CB    SER A  70   OG      0.109                       
 500    GLU A 104   CD    GLU A 104   OE2     0.069                       
 500    GLU A 110   CD    GLU A 110   OE2     0.072                       
 500    GLU A 197   CD    GLU A 197   OE2     0.075                       
 500    GLU A 212   CD    GLU A 212   OE2     0.067                       
 500    GLU A 279   CD    GLU A 279   OE2     0.072                       
 500                                                                      
 500 REMARK: NULL                                                         
 500                                                                      
 500 GEOMETRY AND STEREOCHEMISTRY                                         
 500 SUBTOPIC: COVALENT BOND ANGLES                                       
 500                                                                      
 500 THE STEREOCHEMICAL PARAMETERS OF THE FOLLOWING RESIDUES              
 500 HAVE VALUES WHICH DEVIATE FROM EXPECTED VALUES BY MORE               
 500 THAN 6*RMSD (M=MODEL NUMBER; RES=RESIDUE NAME; C=CHAIN               
 500 IDENTIFIER; SSEQ=SEQUENCE NUMBER; I=INSERTION CODE).                 
 500                                                                      
 500 STANDARD TABLE:                                                      
 500 FORMAT: (10X,I3,1X,A3,1X,A1,I4,A1,3(1X,A4,2X),12X,F5.1)              
 500                                                                      
 500 EXPECTED VALUES PROTEIN: ENGH AND HUBER, 1999                        
 500 EXPECTED VALUES NUCLEIC ACID: CLOWNEY ET AL 1996                     
 500                                                                      
 500  M RES CSSEQI ATM1   ATM2   ATM3                                     
 500    ASP A  35   CB  -  CG  -  OD1 ANGL. DEV. =   7.0 DEGREES          
 500    ASP A  35   CB  -  CG  -  OD2 ANGL. DEV. =  -7.7 DEGREES          
 500    ASP A  50   CB  -  CG  -  OD1 ANGL. DEV. =   6.0 DEGREES          
 500    ASP A  50   CB  -  CG  -  OD2 ANGL. DEV. =  -5.5 DEGREES          
 500    ARG A  65   NE  -  CZ  -  NH1 ANGL. DEV. =   3.8 DEGREES          
 500    ARG A  93   NE  -  CZ  -  NH1 ANGL. DEV. =   3.9 DEGREES          
 500    ASP A 131   CB  -  CG  -  OD1 ANGL. DEV. =   5.4 DEGREES          
 500    ASP A 163   CB  -  CG  -  OD2 ANGL. DEV. =  -6.7 DEGREES          
 500    ASP A 176   CB  -  CG  -  OD2 ANGL. DEV. =  -6.2 DEGREES          
 500    ASP A 179   CB  -  CG  -  OD1 ANGL. DEV. =   5.4 DEGREES          
 500    ASP A 209   CB  -  CG  -  OD2 ANGL. DEV. =  -6.1 DEGREES          
 500    ARG A 275   NE  -  CZ  -  NH1 ANGL. DEV. =   3.3 DEGREES          
 500                                                                      
 500 REMARK: NULL                                                         
 500                                                                      
 500 GEOMETRY AND STEREOCHEMISTRY                                         
 500 SUBTOPIC: TORSION ANGLES                                             
 500                                                                      
 500 TORSION ANGLES OUTSIDE THE EXPECTED RAMACHANDRAN REGIONS:            
 500 (M=MODEL NUMBER; RES=RESIDUE NAME; C=CHAIN IDENTIFIER;               
 500 SSEQ=SEQUENCE NUMBER; I=INSERTION CODE).                             
 500                                                                      
 500 STANDARD TABLE:                                                      
 500 FORMAT:(10X,I3,1X,A3,1X,A1,I4,A1,4X,F7.2,3X,F7.2)                    
 500                                                                      
 500 EXPECTED VALUES: GJ KLEYWEGT AND TA JONES (1996). PHI/PSI-           
 500 CHOLOGY: RAMACHANDRAN REVISITED. STRUCTURE 4, 1395 - 1400            
 500                                                                      
 500  M RES CSSEQI        PSI       PHI                                   
 500    MET A  69     -148.34     53.55                                   
 500    SER A  70       -9.20    -57.79                                   
 500    ASN A 175       -0.01     74.58                                   
 500    LEU A 220     -125.00    -91.05                                   
 500    SER A 256       -2.91   -142.23                                   
 500                                                                      
 500 REMARK: NULL                                                         
 800                                                                      
 800 SITE                                                                 
 800 SITE_IDENTIFIER: AC1                                                 
 800 EVIDENCE_CODE: SOFTWARE                                              
 800 SITE_DESCRIPTION: BINDING SITE FOR RESIDUE BJP A 300                 
 900                                                                      
 900 RELATED ENTRIES                                                      
 900 RELATED ID: 1ERM   RELATED DB: PDB                                   
 900 1ERM CONTAINS THE SAME PROTEIN IN COMPLEX WITH A DIFFERENT           
 900 BORONATE INHIBITOR.                                                  
 900 RELATED ID: 1ERQ   RELATED DB: PDB                                   
 900 1ERQ CONTAINS THE SAME PROTEIN IN COMPLEX WITH A DIFFERENT           
 900 BORONATE INHIBITOR.                                                  

>  <DBREF>
 1ERO A   26   288  UNP    P62593   BLAT_ECOLI      24    286             

>  <SEQRES>
   1 A  263  HIS PRO GLU THR LEU VAL LYS VAL LYS ASP ALA GLU ASP          
   2 A  263  GLN LEU GLY ALA ARG VAL GLY TYR ILE GLU LEU ASP LEU          
   3 A  263  ASN SER GLY LYS ILE LEU GLU SER PHE ARG PRO GLU GLU          
   4 A  263  ARG PHE PRO MET MET SER THR PHE LYS VAL LEU LEU CYS          
   5 A  263  GLY ALA VAL LEU SER ARG VAL ASP ALA GLY GLN GLU GLN          
   6 A  263  LEU GLY ARG ARG ILE HIS TYR SER GLN ASN ASP LEU VAL          
   7 A  263  GLU TYR SER PRO VAL THR GLU LYS HIS LEU THR ASP GLY          
   8 A  263  MET THR VAL ARG GLU LEU CYS SER ALA ALA ILE THR MET          
   9 A  263  SER ASP ASN THR ALA ALA ASN LEU LEU LEU THR THR ILE          
  10 A  263  GLY GLY PRO LYS GLU LEU THR ALA PHE LEU HIS ASN MET          
  11 A  263  GLY ASP HIS VAL THR ARG LEU ASP ARG TRP GLU PRO GLU          
  12 A  263  LEU ASN GLU ALA ILE PRO ASN ASP GLU ARG ASP THR THR          
  13 A  263  MET PRO ALA ALA MET ALA THR THR LEU ARG LYS LEU LEU          
  14 A  263  THR GLY GLU LEU LEU THR LEU ALA SER ARG GLN GLN LEU          
  15 A  263  ILE ASP TRP MET GLU ALA ASP LYS VAL ALA GLY PRO LEU          
  16 A  263  LEU ARG SER ALA LEU PRO ALA GLY TRP PHE ILE ALA ASP          
  17 A  263  LYS SER GLY ALA GLY GLU ARG GLY SER ARG GLY ILE ILE          
  18 A  263  ALA ALA LEU GLY PRO ASP GLY LYS PRO SER ARG ILE VAL          
  19 A  263  VAL ILE TYR THR THR GLY SER GLN ALA THR MET ASP GLU          
  20 A  263  ARG ASN ARG GLN ILE ALA GLU ILE GLY ALA SER LEU ILE          
  21 A  263  LYS HIS TRP                                                  

>  <MODRES>
 1ERO SER A   70  SER  COVALENT LINK WITH BJP                             

>  <HET>
 BJP  A 300      34                                                       

>  <HETNAM>
     BJP (1R)-2-PHENYLACETAMIDO-2-(3-CARBOXYPHENYL)ETHYL                  
   2 BJP  BORONIC ACID                                                    

>  <FORMUL>
   2  BJP    C17 H18 B N O5                                               
   3  HOH   *63(H2 O)                                                     

>  <HELIX>
   1   1 HIS A   26  GLY A   41  1                                  16    
   2   2 THR A   71  ALA A   86  1                                  16    
   3   3 VAL A  108  LEU A  113  5                                   6    
   4   4 VAL A  119  SER A  130  1                                  12    
   5   5 ASP A  131  GLY A  143  1                                  13    
   6   6 GLY A  143  MET A  155  1                                  13    
   7   7 PRO A  167  GLU A  171  5                                   5    
   8   8 MET A  182  GLY A  196  1                                  15    
   9   9 THR A  200  ALA A  213  1                                  14    
  10  10 LEU A  220  LEU A  225  5                                   6    
  11  11 THR A  269  HIS A  287  1                                  19    

>  <SHEET>
   1   A 5 ILE A  56  PHE A  60  0                                        
   2   A 5 ARG A  43  ASP A  50 -1  N  TYR A  46   O  PHE A  60           
   3   A 5 ARG A 257  THR A 264 -1  O  ILE A 258   N  LEU A  49           
   4   A 5 ARG A 243  GLY A 250 -1  O  ARG A 243   N  THR A 263           
   5   A 5 PHE A 230  ALA A 237 -1  N  PHE A 230   O  GLY A 250           
   1   B 2 PHE A  66  PRO A  67  0                                        
   2   B 2 THR A 180  THR A 181 -1  N  THR A 181   O  PHE A  66           
   1   C 2 ARG A  94  ILE A  95  0                                        
   2   C 2 MET A 117  THR A 118 -1  N  MET A 117   O  ILE A  95           

>  <SSBOND>
   1 CYS A   77    CYS A  123                          1555   1555  2.07  

>  <LINK>
       OG  SER A  70                 B   BJP A 300     1555   1555  1.46  

>  <CISPEP>
   1 GLU A  166    PRO A  167          0         4.53                     

>  <SITE>
   1 AC1 14 MET A  69  SER A  70  HIS A 112  ASP A 115                    
   2 AC1 14 SER A 130  ASN A 132  GLU A 166  ASN A 170                    
   3 AC1 14 LYS A 234  SER A 235  GLY A 236  ALA A 237                    
   4 AC1 14 ARG A 243  HOH A 803                                          

>  <ORIGX1>
      1.000000  0.000000  0.000000        0.00000                         

>  <ORIGX2>
      0.000000  1.000000  0.000000        0.00000                         

>  <ORIGX3>
      0.000000  0.000000  1.000000        0.00000                         

>  <SCALE1>
      0.016343  0.000000  0.000000        0.00000                         

>  <SCALE2>
      0.000000  0.011201  0.000000        0.00000                         

>  <SCALE3>
      0.000000  0.000000  0.023753        0.00000                         

>  <MASTER>
      298    0    1   11    9    0    4    6 2124    1   37   21          

$$$$
