start_structures/Ligand_Substrate/Ligand_Complex_Stripped/BO2_7Q0Y.pdb
 OpenBabel08222315203D

 63 64  0  0  1  0  0  0  0  0999 V2000
    8.8770    0.3880   -8.4710 N   0  0  0  0  0  0  0  0  0  0  0  0
    7.5950    0.9960   -8.1200 C   0  0  2  0  0  0  0  0  0  0  0  0
    6.4190    0.0470   -8.2670 C   0  0  0  0  0  0  0  0  0  0  0  0
    5.2970    0.4190   -7.8720 O   0  0  0  0  0  0  0  0  0  0  0  0
    7.3290    2.2640   -8.9280 C   0  0  0  0  0  0  0  0  0  0  0  0
    8.1240    3.3470   -8.4380 O   0  0  0  0  0  0  0  0  0  0  0  0
    9.2280    0.6740   -9.2020 H   0  0  0  0  0  0  0  0  0  0  0  0
    7.6570    1.2600   -7.1890 H   0  0  0  0  0  0  0  0  0  0  0  0
    7.5530    2.1010   -9.8570 H   0  0  0  0  0  0  0  0  0  0  0  0
    6.3910    2.4980   -8.8490 H   0  0  0  0  0  0  0  0  0  0  0  0
   12.5200    9.9020  -11.2030 N   0  0  0  0  0  0  0  0  0  0  0  0
   12.8830    9.0890  -12.1970 C   0  0  0  0  0  0  0  0  0  0  0  0
   12.8160    9.5430  -13.5050 C   0  0  0  0  0  0  0  0  0  0  0  0
   12.4960   10.8090  -13.7460 N   0  0  0  0  0  0  0  0  0  0  0  0
   12.1870   11.6370  -12.7540 C   0  0  0  0  0  0  0  0  0  0  0  0
   12.2010   11.1740  -11.4490 C   0  0  0  0  0  0  0  0  0  0  0  0
   13.1680    7.6270  -11.8640 C   0  0  0  0  0  0  0  0  0  0  0  0
   13.0150    6.8100  -12.7170 O   0  0  0  0  0  0  0  0  0  0  0  0
   13.5590    7.2530  -10.5020 N   0  0  0  0  0  0  0  0  0  0  0  0
   13.6840    5.8820  -10.0710 C   0  0  1  0  0  0  0  0  0  0  0  0
   14.8710    5.2810   -9.4230 C   0  0  0  0  0  0  0  0  0  0  0  0
   16.0360    5.1230  -10.4120 C   0  0  0  0  0  0  0  0  0  0  0  0
   15.8980    4.9480  -11.7960 C   0  0  0  0  0  0  0  0  0  0  0  0
   17.0280    4.8330  -12.5920 C   0  0  0  0  0  0  0  0  0  0  0  0
   18.2850    4.8740  -12.0020 C   0  0  0  0  0  0  0  0  0  0  0  0
   18.4200    5.0300  -10.6310 C   0  0  0  0  0  0  0  0  0  0  0  0
   17.2920    5.1560   -9.8390 C   0  0  0  0  0  0  0  0  0  0  0  0
   12.4440    5.9160   -9.1000 C   0  0  0  0  0  0  0  0  0  0  0  0
   12.3450    6.5970   -8.0750 O   0  0  0  0  0  0  0  0  0  0  0  0
   11.3820    5.0930   -9.5560 N   0  0  0  0  0  0  0  0  0  0  0  0
   10.0490    4.9670   -8.9530 C   0  0  1  0  0  0  0  0  0  0  0  0
    9.1020    5.6450   -9.9950 C   0  0  0  0  0  0  0  0  0  0  0  0
    9.6390    6.9040  -10.7230 C   0  0  0  0  0  0  0  0  0  0  0  0
    9.8440    8.0390   -9.7250 C   0  0  0  0  0  0  0  0  0  0  0  0
    8.6380    7.4240  -11.7610 C   0  0  0  0  0  0  0  0  0  0  0  0
    9.6680    3.4410   -8.6630 B   0  0  0  0  0  0  0  0  0  0  0  0
   10.0410    2.5810   -9.6940 O   0  0  0  0  0  0  0  0  0  0  0  0
   10.1800    3.0290   -7.4220 O   0  0  0  0  0  0  0  0  0  0  0  0
   13.0230    8.8680  -14.3260 H   0  0  0  0  0  0  0  0  0  0  0  0
   11.9260   12.6670  -12.9640 H   0  0  0  0  0  0  0  0  0  0  0  0
   11.9550   11.8410  -10.6310 H   0  0  0  0  0  0  0  0  0  0  0  0
   13.7490    7.9810   -9.8410 H   0  0  0  0  0  0  0  0  0  0  0  0
   13.7660    5.2360  -10.9360 H   0  0  0  0  0  0  0  0  0  0  0  0
   14.6030    4.3030   -9.0360 H   0  0  0  0  0  0  0  0  0  0  0  0
   15.1880    5.9200   -8.6060 H   0  0  0  0  0  0  0  0  0  0  0  0
   14.9120    4.9040  -12.2420 H   0  0  0  0  0  0  0  0  0  0  0  0
   16.9320    4.7130  -13.6630 H   0  0  0  0  0  0  0  0  0  0  0  0
   19.1700    4.7840  -12.6200 H   0  0  0  0  0  0  0  0  0  0  0  0
   19.4050    5.0530  -10.1810 H   0  0  0  0  0  0  0  0  0  0  0  0
   17.3940    5.2800   -8.7680 H   0  0  0  0  0  0  0  0  0  0  0  0
   11.5590    4.5430  -10.3730 H   0  0  0  0  0  0  0  0  0  0  0  0
    9.9800    5.4390   -7.9810 H   0  0  0  0  0  0  0  0  0  0  0  0
    8.1940    5.9310   -9.4740 H   0  0  0  0  0  0  0  0  0  0  0  0
    8.8660    4.9040  -10.7520 H   0  0  0  0  0  0  0  0  0  0  0  0
   10.5660    6.6130  -11.2020 H   0  0  0  0  0  0  0  0  0  0  0  0
    8.8800    8.3770   -9.3590 H   0  0  0  0  0  0  0  0  0  0  0  0
   10.3550    8.8630  -10.2140 H   0  0  0  0  0  0  0  0  0  0  0  0
   10.4440    7.6840   -8.8920 H   0  0  0  0  0  0  0  0  0  0  0  0
    9.0320    8.3230  -12.2250 H   0  0  0  0  0  0  0  0  0  0  0  0
    7.6960    7.6530  -11.2710 H   0  0  0  0  0  0  0  0  0  0  0  0
    8.4760    6.6650  -12.5200 H   0  0  0  0  0  0  0  0  0  0  0  0
    9.4200    2.6850  -10.3940 H   0  0  0  0  0  0  0  0  0  0  0  0
   10.2680    2.0860   -7.4750 H   0  0  0  0  0  0  0  0  0  0  0  0
  1  2  1  0  0  0  0
  2  8  1  1  0  0  0
  3  2  1  0  0  0  0
  3  4  2  0  0  0  0
  5 10  1  0  0  0  0
  5  6  1  0  0  0  0
  5  2  1  0  0  0  0
  6 36  1  0  0  0  0
  7  1  1  0  0  0  0
  9  5  1  0  0  0  0
 11 12  2  0  0  0  0
 11 16  1  0  0  0  0
 12 13  1  0  0  0  0
 12 17  1  0  0  0  0
 13 14  2  0  0  0  0
 13 39  1  0  0  0  0
 14 15  1  0  0  0  0
 15 16  2  0  0  0  0
 15 40  1  0  0  0  0
 16 41  1  0  0  0  0
 17 18  2  0  0  0  0
 17 19  1  0  0  0  0
 19 20  1  0  0  0  0
 19 42  1  0  0  0  0
 20 21  1  0  0  0  0
 20 28  1  0  0  0  0
 20 43  1  6  0  0  0
 21 22  1  0  0  0  0
 21 44  1  0  0  0  0
 21 45  1  0  0  0  0
 22 23  2  0  0  0  0
 22 27  1  0  0  0  0
 23 24  1  0  0  0  0
 23 46  1  0  0  0  0
 24 25  2  0  0  0  0
 24 47  1  0  0  0  0
 25 26  1  0  0  0  0
 25 48  1  0  0  0  0
 26 27  2  0  0  0  0
 26 49  1  0  0  0  0
 27 50  1  0  0  0  0
 28 29  2  0  0  0  0
 28 30  1  0  0  0  0
 30 31  1  0  0  0  0
 30 51  1  0  0  0  0
 31 32  1  0  0  0  0
 31 36  1  0  0  0  0
 31 52  1  1  0  0  0
 32 33  1  0  0  0  0
 32 53  1  0  0  0  0
 32 54  1  0  0  0  0
 33 34  1  0  0  0  0
 33 35  1  0  0  0  0
 33 55  1  0  0  0  0
 34 56  1  0  0  0  0
 34 57  1  0  0  0  0
 34 58  1  0  0  0  0
 35 59  1  0  0  0  0
 35 60  1  0  0  0  0
 35 61  1  0  0  0  0
 36 37  1  0  0  0  0
 36 38  1  0  0  0  0
 37 62  1  0  0  0  0
 38 63  1  0  0  0  0
M  END
>  <HEADER>
    HYDROLASE                               17-OCT-21   7Q0Y              

>  <TITLE>
    CRYSTAL STRUCTURE OF CTX-M-14 IN COMPLEX WITH BORTEZOMIB              

>  <COMPND>
    MOL_ID: 1;                                                            
   2 MOLECULE: BETA-LACTAMASE;                                            
   3 CHAIN: A;                                                            
   4 EC: 3.5.2.6;                                                         
   5 ENGINEERED: YES                                                      

>  <SOURCE>
    MOL_ID: 1;                                                            
   2 ORGANISM_SCIENTIFIC: KLEBSIELLA PNEUMONIAE;                          
   3 ORGANISM_TAXID: 573;                                                 
   4 EXPRESSION_SYSTEM: ESCHERICHIA COLI BL21(DE3);                       
   5 EXPRESSION_SYSTEM_TAXID: 469008                                      

>  <KEYWDS>
    LACTAMASE, ANTIBIOTIC, RESISTENCE, HYDROLASE                          

>  <EXPDTA>
    X-RAY DIFFRACTION                                                     

>  <AUTHOR>
    N.WERNER,M.PERBANDT,W.HINRICHS,A.PRESTER,H.ROHDE,M.AEPFELBACHER,      
   2 C.BETZEL                                                             

>  <REVDAT>
   1   13-APR-22 7Q0Y    0                                                

>  <JRNL>
      AUTH   M.PERBANDT,N.WERNER,A.PRESTER,H.ROHDE,M.AEPFELBACHER,        
      AUTH 2 W.HINRICHS,C.BETZEL                                          
      TITL   STRUCTURAL BASIS TO REPURPOSE BORON-BASED PROTEASOME         
      TITL 2 INHIBITORS BORTEZOMIB AND IXAZOMIB AS BETA-LACTAMASE         
      TITL 3 INHIBITORS.                                                  
      REF    SCI REP                       V.  12  5510 2022              
      REFN                   ESSN 2045-2322                               
      PMID   35365689                                                     
      DOI    10.1038/S41598-022-09392-6                                   

>  <REMARK>
   2                                                                      
   2 RESOLUTION.    1.30 ANGSTROMS.                                       
   3                                                                      
   3 REFINEMENT.                                                          
   3   PROGRAM     : PHENIX 1.19.2_4158                                   
   3   AUTHORS     : PAUL ADAMS,PAVEL AFONINE,VINCENT CHEN,IAN            
   3               : DAVIS,KRESHNA GOPAL,RALF GROSSE-KUNSTLEVE,           
   3               : LI-WEI HUNG,ROBERT IMMORMINO,TOM IOERGER,            
   3               : AIRLIE MCCOY,ERIK MCKEE,NIGEL MORIARTY,              
   3               : REETAL PAI,RANDY READ,JANE RICHARDSON,               
   3               : DAVID RICHARDSON,TOD ROMO,JIM SACCHETTINI,           
   3               : NICHOLAS SAUTER,JACOB SMITH,LAURENT                  
   3               : STORONI,TOM TERWILLIGER,PETER ZWART                  
   3                                                                      
   3    REFINEMENT TARGET : GEOSTD + MONOMER LIBRARY + CDL V1.2           
   3                                                                      
   3  DATA USED IN REFINEMENT.                                            
   3   RESOLUTION RANGE HIGH (ANGSTROMS) : 1.30                           
   3   RESOLUTION RANGE LOW  (ANGSTROMS) : 43.12                          
   3   MIN(FOBS/SIGMA_FOBS)              : 1.350                          
   3   COMPLETENESS FOR RANGE        (%) : 98.5                           
   3   NUMBER OF REFLECTIONS             : 104656                         
   3                                                                      
   3  FIT TO DATA USED IN REFINEMENT.                                     
   3   R VALUE     (WORKING + TEST SET) : 0.128                           
   3   R VALUE            (WORKING SET) : 0.128                           
   3   FREE R VALUE                     : 0.144                           
   3   FREE R VALUE TEST SET SIZE   (%) : 3.620                           
   3   FREE R VALUE TEST SET COUNT      : 3791                            
   3                                                                      
   3  FIT TO DATA USED IN REFINEMENT (IN BINS).                           
   3   BIN  RESOLUTION RANGE  COMPL.    NWORK NFREE   RWORK  RFREE        
   3     1 43.1200 -  3.8900    0.99     3775   141  0.1288 0.1516        
   3     2  3.8900 -  3.0900    1.00     3762   147  0.1102 0.1316        
   3     3  3.0900 -  2.7000    0.99     3763   141  0.1123 0.1156        
   3     4  2.7000 -  2.4500    1.00     3778   141  0.1150 0.1131        
   3     5  2.4500 -  2.2800    1.00     3758   146  0.1099 0.1109        
   3     6  2.2800 -  2.1400    1.00     3803   142  0.1045 0.1307        
   3     7  2.1400 -  2.0400    1.00     3771   141  0.1063 0.1305        
   3     8  2.0400 -  1.9500    0.99     3793   146  0.1112 0.1147        
   3     9  1.9500 -  1.8700    0.99     3697   140  0.1153 0.1473        
   3    10  1.8700 -  1.8100    1.00     3836   141  0.1241 0.1384        
   3    11  1.8100 -  1.7500    1.00     3782   145  0.1222 0.1482        
   3    12  1.7500 -  1.7000    0.99     3789   138  0.1234 0.1317        
   3    13  1.7000 -  1.6600    1.00     3761   142  0.1319 0.1543        
   3    14  1.6600 -  1.6200    0.99     3792   144  0.1347 0.1698        
   3    15  1.6200 -  1.5800    0.99     3758   141  0.1346 0.1492        
   3    16  1.5800 -  1.5500    0.99     3758   135  0.1403 0.1809        
   3    17  1.5500 -  1.5100    0.99     3738   140  0.1446 0.1797        
   3    18  1.5100 -  1.4900    0.99     3802   143  0.1484 0.1687        
   3    19  1.4900 -  1.4600    0.98     3717   141  0.1520 0.1850        
   3    20  1.4600 -  1.4300    0.99     3775   141  0.1611 0.1750        
   3    21  1.4300 -  1.4100    0.98     3713   139  0.1676 0.1850        
   3    22  1.4100 -  1.3900    0.98     3700   142  0.1828 0.1821        
   3    23  1.3900 -  1.3700    0.97     3733   135  0.1826 0.1874        
   3    24  1.3700 -  1.3500    0.96     3644   138  0.1992 0.2319        
   3    25  1.3500 -  1.3300    0.97     3633   136  0.1945 0.1851        
   3    26  1.3300 -  1.3100    0.95     3630   134  0.2018 0.2017        
   3    27  1.3100 -  1.3000    0.90     3404   131  0.2221 0.2329        
   3                                                                      
   3  BULK SOLVENT MODELLING.                                             
   3   METHOD USED        : FLAT BULK SOLVENT MODEL                       
   3   SOLVENT RADIUS     : 1.11                                          
   3   SHRINKAGE RADIUS   : 0.90                                          
   3   K_SOL              : NULL                                          
   3   B_SOL              : NULL                                          
   3                                                                      
   3  ERROR ESTIMATES.                                                    
   3   COORDINATE ERROR (MAXIMUM-LIKELIHOOD BASED)     : 0.089            
   3   PHASE ERROR (DEGREES, MAXIMUM-LIKELIHOOD BASED) : 13.887           
   3                                                                      
   3  B VALUES.                                                           
   3   FROM WILSON PLOT           (A**2) : 9.85                           
   3   MEAN B VALUE      (OVERALL, A**2) : 15.20                          
   3   OVERALL ANISOTROPIC B VALUE.                                       
   3    B11 (A**2) : NULL                                                 
   3    B22 (A**2) : NULL                                                 
   3    B33 (A**2) : NULL                                                 
   3    B12 (A**2) : NULL                                                 
   3    B13 (A**2) : NULL                                                 
   3    B23 (A**2) : NULL                                                 
   3                                                                      
   3  TWINNING INFORMATION.                                               
   3   FRACTION: NULL                                                     
   3   OPERATOR: NULL                                                     
   3                                                                      
   3  DEVIATIONS FROM IDEAL VALUES.                                       
   3                 RMSD          COUNT                                  
   3   BOND      :  0.010           2068                                  
   3   ANGLE     :  1.224           2823                                  
   3   CHIRALITY :  0.086            334                                  
   3   PLANARITY :  0.013            372                                  
   3   DIHEDRAL  : 13.824            768                                  
   3                                                                      
   3  TLS DETAILS                                                         
   3   NUMBER OF TLS GROUPS  : 9                                          
   3   TLS GROUP : 1                                                      
   3    SELECTION: CHAIN 'A' AND (RESID 25 THROUGH 50 )                   
   3    ORIGIN FOR THE GROUP (A):  10.3172 -15.5005 -22.9188              
   3    T TENSOR                                                          
   3      T11:   0.0659 T22:   0.0516                                     
   3      T33:   0.0500 T12:   0.0059                                     
   3      T13:  -0.0059 T23:  -0.0051                                     
   3    L TENSOR                                                          
   3      L11:   2.2426 L22:   2.3847                                     
   3      L33:   2.4428 L12:   1.0678                                     
   3      L13:  -0.1124 L23:   0.9472                                     
   3    S TENSOR                                                          
   3      S11:  -0.0589 S12:   0.1841 S13:  -0.0972                       
   3      S21:  -0.1269 S22:   0.1034 S23:  -0.0513                       
   3      S31:   0.0581 S32:   0.0806 S33:  -0.0406                       
   3   TLS GROUP : 2                                                      
   3    SELECTION: CHAIN 'A' AND (RESID 51 THROUGH 85 )                   
   3    ORIGIN FOR THE GROUP (A):   2.6152  -9.4836  -7.5727              
   3    T TENSOR                                                          
   3      T11:   0.0798 T22:   0.0716                                     
   3      T33:   0.0644 T12:  -0.0050                                     
   3      T13:   0.0036 T23:   0.0053                                     
   3    L TENSOR                                                          
   3      L11:   0.9826 L22:   0.7365                                     
   3      L33:   0.8119 L12:  -0.4169                                     
   3      L13:  -0.4061 L23:   0.4799                                     
   3    S TENSOR                                                          
   3      S11:  -0.0356 S12:  -0.0057 S13:  -0.1110                       
   3      S21:   0.0498 S22:  -0.0195 S23:   0.0660                       
   3      S31:   0.0920 S32:  -0.0202 S33:   0.0540                       
   3   TLS GROUP : 3                                                      
   3    SELECTION: CHAIN 'A' AND (RESID 86 THROUGH 101 )                  
   3    ORIGIN FOR THE GROUP (A):  -3.8884  10.3583   6.1946              
   3    T TENSOR                                                          
   3      T11:   0.1010 T22:   0.1113                                     
   3      T33:   0.0663 T12:  -0.0056                                     
   3      T13:   0.0101 T23:  -0.0192                                     
   3    L TENSOR                                                          
   3      L11:   6.7750 L22:   4.4894                                     
   3      L33:   1.8541 L12:   4.0424                                     
   3      L13:  -2.0774 L23:  -0.1569                                     
   3    S TENSOR                                                          
   3      S11:   0.2435 S12:  -0.5712 S13:   0.3985                       
   3      S21:   0.2930 S22:  -0.2999 S23:   0.3584                       
   3      S31:   0.0204 S32:   0.0748 S33:   0.0408                       
   3   TLS GROUP : 4                                                      
   3    SELECTION: CHAIN 'A' AND (RESID 102 THROUGH 128 )                 
   3    ORIGIN FOR THE GROUP (A):   1.1434  13.2696  -3.2233              
   3    T TENSOR                                                          
   3      T11:   0.0774 T22:   0.0703                                     
   3      T33:   0.0733 T12:  -0.0008                                     
   3      T13:   0.0007 T23:  -0.0086                                     
   3    L TENSOR                                                          
   3      L11:   2.5614 L22:   1.0278                                     
   3      L33:   1.0002 L12:   0.1639                                     
   3      L13:  -0.9971 L23:   0.0963                                     
   3    S TENSOR                                                          
   3      S11:   0.0876 S12:  -0.0758 S13:   0.2655                       
   3      S21:   0.0391 S22:  -0.0119 S23:   0.0225                       
   3      S31:  -0.1211 S32:   0.0378 S33:  -0.0671                       
   3   TLS GROUP : 5                                                      
   3    SELECTION: CHAIN 'A' AND (RESID 129 THROUGH 179 )                 
   3    ORIGIN FOR THE GROUP (A):   8.4770  -2.0667  -0.2809              
   3    T TENSOR                                                          
   3      T11:   0.0919 T22:   0.1052                                     
   3      T33:   0.0718 T12:  -0.0016                                     
   3      T13:  -0.0084 T23:   0.0031                                     
   3    L TENSOR                                                          
   3      L11:   0.7070 L22:   0.5423                                     
   3      L33:   0.2914 L12:  -0.2182                                     
   3      L13:  -0.1479 L23:   0.0217                                     
   3    S TENSOR                                                          
   3      S11:  -0.0190 S12:  -0.1254 S13:  -0.0350                       
   3      S21:   0.0612 S22:   0.0232 S23:  -0.0072                       
   3      S31:   0.0074 S32:   0.0466 S33:  -0.0060                       
   3   TLS GROUP : 6                                                      
   3    SELECTION: CHAIN 'A' AND (RESID 180 THROUGH 194 )                 
   3    ORIGIN FOR THE GROUP (A):   1.0762 -12.2918  -7.7483              
   3    T TENSOR                                                          
   3      T11:   0.0701 T22:   0.0571                                     
   3      T33:   0.0447 T12:  -0.0080                                     
   3      T13:   0.0049 T23:   0.0105                                     
   3    L TENSOR                                                          
   3      L11:   8.3395 L22:   1.3335                                     
   3      L33:   1.1570 L12:  -3.0248                                     
   3      L13:   1.1984 L23:  -0.0517                                     
   3    S TENSOR                                                          
   3      S11:  -0.0030 S12:   0.0035 S13:  -0.2336                       
   3      S21:  -0.0424 S22:  -0.0072 S23:   0.1240                       
   3      S31:   0.0679 S32:  -0.0401 S33:   0.0228                       
   3   TLS GROUP : 7                                                      
   3    SELECTION: CHAIN 'A' AND (RESID 195 THROUGH 229 )                 
   3    ORIGIN FOR THE GROUP (A):  -6.5502  -2.3126 -13.3873              
   3    T TENSOR                                                          
   3      T11:   0.0686 T22:   0.0798                                     
   3      T33:   0.0489 T12:  -0.0061                                     
   3      T13:  -0.0129 T23:   0.0004                                     
   3    L TENSOR                                                          
   3      L11:   1.0003 L22:   0.5264                                     
   3      L33:   0.3238 L12:   0.1037                                     
   3      L13:  -0.1201 L23:  -0.0016                                     
   3    S TENSOR                                                          
   3      S11:   0.0029 S12:   0.1299 S13:  -0.0196                       
   3      S21:  -0.0754 S22:   0.0365 S23:   0.0415                       
   3      S31:   0.0477 S32:  -0.1041 S33:  -0.0242                       
   3   TLS GROUP : 8                                                      
   3    SELECTION: CHAIN 'A' AND (RESID 230 THROUGH 274 )                 
   3    ORIGIN FOR THE GROUP (A):   6.1631  -4.4306 -16.9101              
   3    T TENSOR                                                          
   3      T11:   0.0613 T22:   0.0514                                     
   3      T33:   0.0275 T12:   0.0034                                     
   3      T13:  -0.0038 T23:  -0.0117                                     
   3    L TENSOR                                                          
   3      L11:   4.3604 L22:   0.8034                                     
   3      L33:   0.9482 L12:   0.1625                                     
   3      L13:   0.4340 L23:  -0.1575                                     
   3    S TENSOR                                                          
   3      S11:  -0.0281 S12:   0.0921 S13:  -0.0436                       
   3      S21:  -0.0472 S22:   0.0217 S23:   0.0022                       
   3      S31:  -0.0051 S32:  -0.0085 S33:   0.0184                       
   3   TLS GROUP : 9                                                      
   3    SELECTION: CHAIN 'A' AND (RESID 275 THROUGH 289 )                 
   3    ORIGIN FOR THE GROUP (A):   4.0700  -8.3368 -25.6363              
   3    T TENSOR                                                          
   3      T11:   0.0786 T22:   0.0873                                     
   3      T33:   0.0637 T12:   0.0050                                     
   3      T13:  -0.0028 T23:  -0.0145                                     
   3    L TENSOR                                                          
   3      L11:   7.6245 L22:   7.4564                                     
   3      L33:   5.9969 L12:   5.9271                                     
   3      L13:   2.2428 L23:   2.3657                                     
   3    S TENSOR                                                          
   3      S11:  -0.1496 S12:   0.1994 S13:  -0.0310                       
   3      S21:  -0.2363 S22:   0.0295 S23:   0.1845                       
   3      S31:   0.1023 S32:  -0.1610 S33:   0.0842                       
   3                                                                      
   3  NCS DETAILS                                                         
   3   NUMBER OF NCS GROUPS : NULL                                        
   3                                                                      
   3  OTHER REFINEMENT REMARKS: NULL                                      
   4                                                                      
   4 7Q0Y COMPLIES WITH FORMAT V. 3.30, 13-JUL-11                         
 100                                                                      
 100 THIS ENTRY HAS BEEN PROCESSED BY PDBE ON 17-OCT-21.                  
 100 THE DEPOSITION ID IS D_1292118769.                                   
 200                                                                      
 200 EXPERIMENTAL DETAILS                                                 
 200  EXPERIMENT TYPE                : X-RAY DIFFRACTION                  
 200  DATE OF DATA COLLECTION        : 19-DEC-19                          
 200  TEMPERATURE           (KELVIN) : 100                                
 200  PH                             : 4.5                                
 200  NUMBER OF CRYSTALS USED        : 1                                  
 200                                                                      
 200  SYNCHROTRON              (Y/N) : Y                                  
 200  RADIATION SOURCE               : PETRA III, DESY                    
 200  BEAMLINE                       : P11                                
 200  X-RAY GENERATOR MODEL          : NULL                               
 200  MONOCHROMATIC OR LAUE    (M/L) : M                                  
 200  WAVELENGTH OR RANGE        (A) : 1.0332                             
 200  MONOCHROMATOR                  : NULL                               
 200  OPTICS                         : NULL                               
 200                                                                      
 200  DETECTOR TYPE                  : PIXEL                              
 200  DETECTOR MANUFACTURER          : DECTRIS PILATUS 6M                 
 200  INTENSITY-INTEGRATION SOFTWARE : XDS                                
 200  DATA SCALING SOFTWARE          : XDS                                
 200                                                                      
 200  NUMBER OF UNIQUE REFLECTIONS   : 55064                              
 200  RESOLUTION RANGE HIGH      (A) : 1.300                              
 200  RESOLUTION RANGE LOW       (A) : 35.460                             
 200  REJECTION CRITERIA  (SIGMA(I)) : NULL                               
 200                                                                      
 200 OVERALL.                                                             
 200  COMPLETENESS FOR RANGE     (%) : 99.0                               
 200  DATA REDUNDANCY                : 7.100                              
 200  R MERGE                    (I) : NULL                               
 200  R SYM                      (I) : NULL                               
 200  <I/SIGMA(I)> FOR THE DATA SET  : 16.8900                            
 200                                                                      
 200 IN THE HIGHEST RESOLUTION SHELL.                                     
 200  HIGHEST RESOLUTION SHELL, RANGE HIGH (A) : 1.30                     
 200  HIGHEST RESOLUTION SHELL, RANGE LOW  (A) : 1.35                     
 200  COMPLETENESS FOR SHELL     (%) : 93.0                               
 200  DATA REDUNDANCY IN SHELL       : NULL                               
 200  R MERGE FOR SHELL          (I) : NULL                               
 200  R SYM FOR SHELL            (I) : NULL                               
 200  <I/SIGMA(I)> FOR SHELL         : 3.590                              
 200                                                                      
 200 DIFFRACTION PROTOCOL: SINGLE WAVELENGTH                              
 200 METHOD USED TO DETERMINE THE STRUCTURE: MOLECULAR REPLACEMENT        
 200 SOFTWARE USED: PHASER                                                
 200 STARTING MODEL: 6GTH                                                 
 200                                                                      
 200 REMARK: NULL                                                         
 280                                                                      
 280 CRYSTAL                                                              
 280 SOLVENT CONTENT, VS   (%): 37.95                                     
 280 MATTHEWS COEFFICIENT, VM (ANGSTROMS**3/DA): 1.98                     
 280                                                                      
 280 CRYSTALLIZATION CONDITIONS: 30 % PEG8000, 0.2 M LITHIUM SULFATE,     
 280  0.1 M SODIUM ACETATE, PH 4.5, VAPOR DIFFUSION, SITTING DROP,        
 280  TEMPERATURE 293K                                                    
 290                                                                      
 290 CRYSTALLOGRAPHIC SYMMETRY                                            
 290 SYMMETRY OPERATORS FOR SPACE GROUP: P 21 21 21                       
 290                                                                      
 290      SYMOP   SYMMETRY                                                
 290     NNNMMM   OPERATOR                                                
 290       1555   X,Y,Z                                                   
 290       2555   -X+1/2,-Y,Z+1/2                                         
 290       3555   -X,Y+1/2,-Z+1/2                                         
 290       4555   X+1/2,-Y+1/2,-Z                                         
 290                                                                      
 290     WHERE NNN -> OPERATOR NUMBER                                     
 290           MMM -> TRANSLATION VECTOR                                  
 290                                                                      
 290 CRYSTALLOGRAPHIC SYMMETRY TRANSFORMATIONS                            
 290 THE FOLLOWING TRANSFORMATIONS OPERATE ON THE ATOM/HETATM             
 290 RECORDS IN THIS ENTRY TO PRODUCE CRYSTALLOGRAPHICALLY                
 290 RELATED MOLECULES.                                                   
 290   SMTRY1   1  1.000000  0.000000  0.000000        0.00000            
 290   SMTRY2   1  0.000000  1.000000  0.000000        0.00000            
 290   SMTRY3   1  0.000000  0.000000  1.000000        0.00000            
 290   SMTRY1   2 -1.000000  0.000000  0.000000       20.65150            
 290   SMTRY2   2  0.000000 -1.000000  0.000000        0.00000            
 290   SMTRY3   2  0.000000  0.000000  1.000000       43.12200            
 290   SMTRY1   3 -1.000000  0.000000  0.000000        0.00000            
 290   SMTRY2   3  0.000000  1.000000  0.000000       31.16550            
 290   SMTRY3   3  0.000000  0.000000 -1.000000       43.12200            
 290   SMTRY1   4  1.000000  0.000000  0.000000       20.65150            
 290   SMTRY2   4  0.000000 -1.000000  0.000000       31.16550            
 290   SMTRY3   4  0.000000  0.000000 -1.000000        0.00000            
 290                                                                      
 290 REMARK: NULL                                                         
 300                                                                      
 300 BIOMOLECULE: 1                                                       
 300 SEE REMARK 350 FOR THE AUTHOR PROVIDED AND/OR PROGRAM                
 300 GENERATED ASSEMBLY INFORMATION FOR THE STRUCTURE IN                  
 300 THIS ENTRY. THE REMARK MAY ALSO PROVIDE INFORMATION ON               
 300 BURIED SURFACE AREA.                                                 
 350                                                                      
 350 COORDINATES FOR A COMPLETE MULTIMER REPRESENTING THE KNOWN           
 350 BIOLOGICALLY SIGNIFICANT OLIGOMERIZATION STATE OF THE                
 350 MOLECULE CAN BE GENERATED BY APPLYING BIOMT TRANSFORMATIONS          
 350 GIVEN BELOW.  BOTH NON-CRYSTALLOGRAPHIC AND                          
 350 CRYSTALLOGRAPHIC OPERATIONS ARE GIVEN.                               
 350                                                                      
 350 BIOMOLECULE: 1                                                       
 350 AUTHOR DETERMINED BIOLOGICAL UNIT: MONOMERIC                         
 350 APPLY THE FOLLOWING TO CHAINS: A                                     
 350   BIOMT1   1  1.000000  0.000000  0.000000        0.00000            
 350   BIOMT2   1  0.000000  1.000000  0.000000        0.00000            
 350   BIOMT3   1  0.000000  0.000000  1.000000        0.00000            
 470                                                                      
 470 MISSING ATOM                                                         
 470 THE FOLLOWING RESIDUES HAVE MISSING ATOMS (M=MODEL NUMBER;           
 470 RES=RESIDUE NAME; C=CHAIN IDENTIFIER; SSEQ=SEQUENCE NUMBER;          
 470 I=INSERTION CODE):                                                   
 470   M RES CSSEQI  ATOMS                                                
 470     LYS A  88    CG   CD   CE   NZ                                   
 480                                                                      
 480 ZERO OCCUPANCY ATOM                                                  
 480 THE FOLLOWING RESIDUES HAVE ATOMS MODELED WITH ZERO                  
 480 OCCUPANCY. THE LOCATION AND PROPERTIES OF THESE ATOMS                
 480 MAY NOT BE RELIABLE. (M=MODEL NUMBER; RES=RESIDUE NAME;              
 480 C=CHAIN IDENTIFIER; SSEQ=SEQUENCE NUMBER; I=INSERTION CODE):         
 480   M RES C SSEQI ATOMS                                                
 480     LYS A  111   CD   CE   NZ                                        
 480     GLN A  253   CG   CD   OE1  NE2                                  
 500                                                                      
 500 GEOMETRY AND STEREOCHEMISTRY                                         
 500 SUBTOPIC: CLOSE CONTACTS IN SAME ASYMMETRIC UNIT                     
 500                                                                      
 500 THE FOLLOWING ATOMS ARE IN CLOSE CONTACT.                            
 500                                                                      
 500  ATM1  RES C  SSEQI   ATM2  RES C  SSEQI           DISTANCE          
 500   O    HOH A   417     O    HOH A   673              1.62            
 500   O    HOH A   441     O    HOH A   683              1.73            
 500   O    HOH A   415     O    HOH A   505              1.75            
 500   O    HOH A   651     O    HOH A   697              1.80            
 500   O    HOH A   430     O    HOH A   515              1.87            
 500   O    HOH A   797     O    HOH A   845              1.87            
 500   O    HOH A   575     O    HOH A   665              1.90            
 500   O    HOH A   565     O    HOH A   621              1.91            
 500   O    HOH A   409     O    HOH A   782              1.92            
 500   O    HOH A   574     O    HOH A   588              1.95            
 500   O    HOH A   684     O    HOH A   706              1.95            
 500   O    HOH A   730     O    HOH A   752              2.00            
 500   O    HOH A   503     O    HOH A   794              2.02            
 500   O    HOH A   712     O    HOH A   752              2.02            
 500   O    HOH A   795     O    HOH A   818              2.06            
 500   O    HOH A   486     O    HOH A   717              2.07            
 500   O    HOH A   597     O    HOH A   614              2.07            
 500   O    HOH A   407     O    HOH A   420              2.07            
 500   O    HOH A   746     O    HOH A   824              2.10            
 500   O    HOH A   545     O    HOH A   842              2.10            
 500   OE1  GLN A   192     O    HOH A   403              2.12            
 500   O    HOH A   408     O    HOH A   600              2.12            
 500   O    HOH A   490     O    HOH A   735              2.12            
 500   O    HOH A   632     O    HOH A   808              2.12            
 500   O    HOH A   624     O    HOH A   790              2.19            
 500                                                                      
 500 REMARK: NULL                                                         
 500                                                                      
 500 GEOMETRY AND STEREOCHEMISTRY                                         
 500 SUBTOPIC: CLOSE CONTACTS                                             
 500                                                                      
 500 THE FOLLOWING ATOMS THAT ARE RELATED BY CRYSTALLOGRAPHIC             
 500 SYMMETRY ARE IN CLOSE CONTACT.  AN ATOM LOCATED WITHIN 0.15          
 500 ANGSTROMS OF A SYMMETRY RELATED ATOM IS ASSUMED TO BE ON A           
 500 SPECIAL POSITION AND IS, THEREFORE, LISTED IN REMARK 375             
 500 INSTEAD OF REMARK 500.  ATOMS WITH NON-BLANK ALTERNATE               
 500 LOCATION INDICATORS ARE NOT INCLUDED IN THE CALCULATIONS.            
 500                                                                      
 500 DISTANCE CUTOFF:                                                     
 500 2.2 ANGSTROMS FOR CONTACTS NOT INVOLVING HYDROGEN ATOMS              
 500 1.6 ANGSTROMS FOR CONTACTS INVOLVING HYDROGEN ATOMS                  
 500                                                                      
 500  ATM1  RES C  SSEQI   ATM2  RES C  SSEQI  SSYMOP   DISTANCE          
 500   O    HOH A   794     O    HOH A   845     1455     1.80            
 500   O    HOH A   824     O    HOH A   837     4455     1.84            
 500   O    HOH A   631     O    HOH A   730     4445     1.92            
 500   O    HOH A   405     O    HOH A   620     3554     1.94            
 500   O    HOH A   829     O    HOH A   861     2555     2.06            
 500   O    HOH A   666     O    HOH A   686     3554     2.06            
 500   O    HOH A   600     O    HOH A   730     4445     2.06            
 500   O    HOH A   599     O    HOH A   672     3554     2.14            
 500   O    HOH A   673     O    HOH A   701     1455     2.16            
 500   O    HOH A   719     O    HOH A   797     4455     2.17            
 500                                                                      
 500 REMARK: NULL                                                         
 500                                                                      
 500 GEOMETRY AND STEREOCHEMISTRY                                         
 500 SUBTOPIC: TORSION ANGLES                                             
 500                                                                      
 500 TORSION ANGLES OUTSIDE THE EXPECTED RAMACHANDRAN REGIONS:            
 500 (M=MODEL NUMBER; RES=RESIDUE NAME; C=CHAIN IDENTIFIER;               
 500 SSEQ=SEQUENCE NUMBER; I=INSERTION CODE).                             
 500                                                                      
 500 STANDARD TABLE:                                                      
 500 FORMAT:(10X,I3,1X,A3,1X,A1,I4,A1,4X,F7.2,3X,F7.2)                    
 500                                                                      
 500 EXPECTED VALUES: GJ KLEYWEGT AND TA JONES (1996). PHI/PSI-           
 500 CHOLOGY: RAMACHANDRAN REVISITED. STRUCTURE 4, 1395 - 1400            
 500                                                                      
 500  M RES CSSEQI        PSI       PHI                                   
 500    CYS A  69     -136.50     49.62                                   
 500    VAL A 103     -136.99   -115.06                                   
 500    SER A 220     -128.94   -105.77                                   
 500                                                                      
 500 REMARK: NULL                                                         
 525                                                                      
 525 SOLVENT                                                              
 525                                                                      
 525 THE SOLVENT MOLECULES HAVE CHAIN IDENTIFIERS THAT                    
 525 INDICATE THE POLYMER CHAIN WITH WHICH THEY ARE MOST                  
 525 CLOSELY ASSOCIATED. THE REMARK LISTS ALL THE SOLVENT                 
 525 MOLECULES WHICH ARE MORE THAN 5A AWAY FROM THE                       
 525 NEAREST POLYMER CHAIN (M = MODEL NUMBER;                             
 525 RES=RESIDUE NAME; C=CHAIN IDENTIFIER; SSEQ=SEQUENCE                  
 525 NUMBER; I=INSERTION CODE):                                           
 525                                                                      
 525  M RES CSSEQI                                                        
 525    HOH A 865        DISTANCE =  6.64 ANGSTROMS                       

>  <DBREF1>
 7Q0Y A   26   289  UNP                  A0A2S1JJX2_KLEPN                 

>  <DBREF2>
 7Q0Y A     A0A2S1JJX2                         25         286             

>  <SEQADV>
 7Q0Y GLU A   25  UNP  A0A2S1JJX           EXPRESSION TAG                 

>  <SEQRES>
   1 A  263  GLU THR SER ALA VAL GLN GLN LYS LEU ALA ALA LEU GLU          
   2 A  263  LYS SER SER GLY GLY ARG LEU GLY VAL ALA LEU ILE ASP          
   3 A  263  THR ALA ASP ASN THR GLN VAL LEU TYR ARG GLY ASP GLU          
   4 A  263  ARG PHE PRO MET CYS SER THR SER LYS VAL MET ALA ALA          
   5 A  263  ALA ALA VAL LEU LYS GLN SER GLU THR GLN LYS GLN LEU          
   6 A  263  LEU ASN GLN PRO VAL GLU ILE LYS PRO ALA ASP LEU VAL          
   7 A  263  ASN TYR ASN PRO ILE ALA GLU LYS HIS VAL ASN GLY THR          
   8 A  263  MET THR LEU ALA GLU LEU SER ALA ALA ALA LEU GLN TYR          
   9 A  263  SER ASP ASN THR ALA MET ASN LYS LEU ILE ALA GLN LEU          
  10 A  263  GLY GLY PRO GLY GLY VAL THR ALA PHE ALA ARG ALA ILE          
  11 A  263  GLY ASP GLU THR PHE ARG LEU ASP ARG THR GLU PRO THR          
  12 A  263  LEU ASN THR ALA ILE PRO GLY ASP PRO ARG ASP THR THR          
  13 A  263  THR PRO ARG ALA MET ALA GLN THR LEU ARG GLN LEU THR          
  14 A  263  LEU GLY HIS ALA LEU GLY GLU THR GLN ARG ALA GLN LEU          
  15 A  263  VAL THR TRP LEU LYS GLY ASN THR THR GLY ALA ALA SER          
  16 A  263  ILE ARG ALA GLY LEU PRO THR SER TRP THR VAL GLY ASP          
  17 A  263  LYS THR GLY SER GLY ASP TYR GLY THR THR ASN ASP ILE          
  18 A  263  ALA VAL ILE TRP PRO GLN GLY ARG ALA PRO LEU VAL LEU          
  19 A  263  VAL THR TYR PHE THR GLN PRO GLN GLN ASN ALA GLU SER          
  20 A  263  ARG ARG ASP VAL LEU ALA SER ALA ALA ARG ILE ILE ALA          
  21 A  263  GLU GLY LEU                                                  

>  <HET>
 BO2  A 301      53                                                       
 GOL  A 302      14                                                       
 ACT  A 303       7                                                       
  CL  A 304       1                                                       

>  <HETNAM>
     BO2 N-[(1R)-1-(DIHYDROXYBORYL)-3-METHYLBUTYL]-N-(PYRAZIN-2-          
   2 BO2  YLCARBONYL)-L-PHENYLALANINAMIDE                                 
     GOL GLYCEROL                                                         
     ACT ACETATE ION                                                      
      CL CHLORIDE ION                                                     

>  <HETSYN>
     BO2 BORTEZOMIB                                                       
     GOL GLYCERIN; PROPANE-1,2,3-TRIOL                                    

>  <FORMUL>
   2  BO2    C19 H25 B N4 O4                                              
   3  GOL    C3 H8 O3                                                     
   4  ACT    C2 H3 O2 1-                                                  
   5   CL    CL 1-                                                        
   6  HOH   *465(H2 O)                                                    

>  <HELIX>
   1 AA1 SER A   27  GLY A   41  1                                  15    
   2 AA2 CYS A   69  THR A   71  5                                   3    
   3 AA3 SER A   72  GLU A   85  1                                  14    
   4 AA4 GLN A   89  ASN A   92  5                                   4    
   5 AA5 LYS A   98  LEU A  102  5                                   5    
   6 AA6 ILE A  108  VAL A  113  5                                   6    
   7 AA7 LEU A  119  TYR A  129  1                                  11    
   8 AA8 ASP A  131  LEU A  142  1                                  12    
   9 AA9 GLY A  144  ILE A  155  1                                  12    
  10 AB1 PRO A  167  THR A  171  5                                   5    
  11 AB2 THR A  182  LEU A  195  1                                  14    
  12 AB3 GLY A  200  GLY A  213  1                                  14    
  13 AB4 SER A  220  LEU A  225  5                                   6    
  14 AB5 ARG A  274  GLU A  287  1                                  14    

>  <SHEET>
   1 AA1 5 GLN A  56  TYR A  60  0                                        
   2 AA1 5 ARG A  43  ASP A  50 -1  N  VAL A  46   O  TYR A  60           
   3 AA1 5 LEU A 258  THR A 265 -1  O  TYR A 263   N  GLY A  45           
   4 AA1 5 THR A 243  TRP A 251 -1  N  ILE A 250   O  LEU A 258           
   5 AA1 5 THR A 230  GLY A 238 -1  N  GLY A 236   O  ASN A 245           
   1 AA2 2 PHE A  66  PRO A  67  0                                        
   2 AA2 2 THR A 180  THR A 181 -1  O  THR A 181   N  PHE A  66           
   1 AA3 2 PRO A  94  ILE A  97  0                                        
   2 AA3 2 GLY A 115  THR A 118 -1  O  MET A 117   N  VAL A  95           

>  <LINK>
       OG  SER A  70                 B26 BO2 A 301     1555   1555  1.56  

>  <CISPEP>
   1 GLU A  166    PRO A  167          0         6.27                     

>  <ORIGX1>
      1.000000  0.000000  0.000000        0.00000                         

>  <ORIGX2>
      0.000000  1.000000  0.000000        0.00000                         

>  <ORIGX3>
      0.000000  0.000000  1.000000        0.00000                         

>  <SCALE1>
      0.024211  0.000000  0.000000        0.00000                         

>  <SCALE2>
      0.000000  0.016043  0.000000        0.00000                         

>  <SCALE3>
      0.000000  0.000000  0.011595        0.00000                         

>  <ANISOU>
  668  N   SER A  70      973    995    892    -66     50      8       N  
  669  CA  SER A  70      946    940    844    -60     46     17       C  
  670  C   SER A  70      873    867    731    -42     24     37       C  
  671  O   SER A  70      942    929    791    -35     18     39       O  
  672  CB  SER A  70     1079   1015    973    -60     80     32       C  
  673  OG  SER A  70     1299   1228   1246    -85    107      3       O  
 4015  N1  BO2 A 301     6678   4134   3781    583    803   -234       N  
 4016  C2  BO2 A 301     6456   4066   3654    419    695   -302       C  
 4017  C3  BO2 A 301     6806   4124   3766    473    620   -255       C  
 4018  N4  BO2 A 301     6941   4228   3836    543    639   -265       N  
 4019  C5  BO2 A 301     6763   4212   3793    692    784   -261       C  
 4020  C6  BO2 A 301     6699   4184   3814    728    839   -228       C  
 4021  C7  BO2 A 301     5709   3870   3437    343    697   -411       C  
 4022  O8  BO2 A 301     5957   4004   3539    421    784   -443       O  
 4023  N9  BO2 A 301     4574   3482   3125    252    669   -416       N  
 4024  C10 BO2 A 301     3294   2853   2820    338    643   -420       C  
 4025  C11 BO2 A 301     3756   3098   2908    258    766   -288       C  
 4026  C12 BO2 A 301     3697   2952   2878    126   1004   -340       C  
 4027  C13 BO2 A 301     3793   3118   2974    167   1012   -277       C  
 4028  C14 BO2 A 301     3795   3253   2981    150   1076   -301       C  
 4029  C15 BO2 A 301     3801   3264   2960     22    920   -350       C  
 4030  C16 BO2 A 301     3676   3041   2940     -7    895   -447       C  
 4031  C17 BO2 A 301     3868   2857   2887   -106    821   -435       C  
 4032  C18 BO2 A 301     2352   2054   2505    267    515   -318       C  
 4033  O19 BO2 A 301     1857   1526   2507   -181    335   -184       O  
 4034  N20 BO2 A 301     1921   1949   2243    186    339   -173       N  
 4035  C21 BO2 A 301     1818   1906   1982    214    127    -84       C  
 4036  C22 BO2 A 301     2438   2026   2223    -37    -30     39       C  
 4037  C23 BO2 A 301     2678   1997   2310    -67    -13     14       C  
 4038  C24 BO2 A 301     2647   2013   2384     51     25     23       C  
 4039  C25 BO2 A 301     2747   1957   2328   -141     80     -6       C  
 4040  B26 BO2 A 301     1311   1328   1363    253     22    -67       B  
 4041  O27 BO2 A 301     1268   1169   1258    105    -49    -66       O  
 4042  O28 BO2 A 301     1840   1569   1514     18   -296   -160       O  

>  <MASTER>
      460    0    4   14    9    0    0    6 2465    1   75   21          

$$$$
