start_structures/Ligand_Substrate/Ligand_Complex_Stripped/BSF_3O86.pdb
 OpenBabel08222315203D

 21 21  0  0  1  0  0  0  0  0999 V2000
   26.9690    1.6330   16.1810 N   0  0  0  0  0  0  0  0  0  0  0  0
   28.3330    2.0830   16.4600 C   0  0  2  0  0  0  0  0  0  0  0  0
   29.1720    1.1790   17.3520 C   0  0  0  0  0  0  0  0  0  0  0  0
   30.3810    1.3880   17.4620 O   0  0  0  0  0  0  0  0  0  0  0  0
   28.3510    3.5210   17.0130 C   0  0  0  0  0  0  0  0  0  0  0  0
   27.9220    4.3840   15.9930 O   0  0  0  0  0  0  0  0  0  0  0  0
   23.2060    8.1130   13.9990 O   0  0  0  0  0  0  0  0  0  0  0  0
   25.0920    7.4110   12.5410 O   0  0  0  0  0  0  0  0  0  0  0  0
   25.5620    4.0940   16.5910 O   0  0  0  0  0  0  0  0  0  0  0  0
   26.7640    5.9530   17.5360 O   0  0  0  0  0  0  0  0  0  0  0  0
   21.0720    5.7270    9.7450 C   0  0  0  0  0  0  0  0  0  0  0  0
   22.3930    5.3150    9.7020 C   0  0  0  0  0  0  0  0  0  0  0  0
   20.4720    6.0410   10.9660 C   0  0  0  0  0  0  0  0  0  0  0  0
   23.1210    5.2410   10.8760 C   0  0  0  0  0  0  0  0  0  0  0  0
   21.2030    5.9660   12.1460 C   0  0  0  0  0  0  0  0  0  0  0  0
   26.2610    5.9550   14.9110 C   0  0  0  0  0  0  0  0  0  0  0  0
   23.3440    5.4830   13.3490 C   0  0  0  0  0  0  0  0  0  0  0  0
   25.0140    6.6900   15.1170 N   0  0  0  0  0  0  0  0  0  0  0  0
   22.5290    5.5640   12.0830 C   0  0  0  0  0  0  0  0  0  0  0  0
   24.2280    7.0380   13.7130 S   0  0  0  0  0  0  0  0  0  0  0  0
   26.6420    5.1450   16.2600 B   0  0  0  0  0  0  0  0  0  0  0  0
  2  1  1  1  0  0  0
  2  5  1  0  0  0  0
  2  3  1  0  0  0  0
  3  4  2  0  0  0  0
  6 21  1  0  0  0  0
  6  5  1  0  0  0  0
  7 20  2  0  0  0  0
  8 20  2  0  0  0  0
  9 21  1  0  0  0  0
 10 21  1  0  0  0  0
 11 12  2  0  0  0  0
 11 13  1  0  0  0  0
 12 14  1  0  0  0  0
 13 15  2  0  0  0  0
 14 19  2  0  0  0  0
 15 19  1  0  0  0  0
 16 18  1  0  0  0  0
 16 21  1  0  0  0  0
 17 19  1  0  0  0  0
 17 20  1  0  0  0  0
 18 20  1  0  0  0  0
M  END
>  <HEADER>
    HYDROLASE                               02-AUG-10   3O86              

>  <TITLE>
    CRYSTAL STRUCTURE OF AMPC BETA-LACTAMASE IN COMPLEX WITH A SULFONAMIDE
   2 BORONIC ACID INHIBITOR                                               

>  <COMPND>
    MOL_ID: 1;                                                            
   2 MOLECULE: BETA-LACTAMASE;                                            
   3 CHAIN: A, B;                                                         
   4 FRAGMENT: BETA-LACTAMASE;                                            
   5 SYNONYM: CEPHALOSPORINASE;                                           
   6 EC: 3.5.2.6;                                                         
   7 ENGINEERED: YES                                                      

>  <SOURCE>
    MOL_ID: 1;                                                            
   2 ORGANISM_SCIENTIFIC: ESCHERICHIA COLI;                               
   3 ORGANISM_TAXID: 83333;                                               
   4 STRAIN: K12;                                                         
   5 GENE: AMPA, AMPC, B4150, JW4111;                                     
   6 EXPRESSION_SYSTEM: ESCHERICHIA COLI;                                 
   7 EXPRESSION_SYSTEM_TAXID: 562;                                        
   8 EXPRESSION_SYSTEM_STRAIN: JM109;                                     
   9 EXPRESSION_SYSTEM_VECTOR_TYPE: PLASMID;                              
  10 EXPRESSION_SYSTEM_PLASMID: POGO295                                   

>  <KEYWDS>
    CONTAINS ALPHA HELICES AND A BETA SANDWICH / BETA-LACTAMASE-LIKE FOLD 
   2 / AMPC BETA-LACTAMASE, CLASS C, HYDROLASE, CEPHALOSPORINASE          

>  <EXPDTA>
    X-RAY DIFFRACTION                                                     

>  <AUTHOR>
    O.EIDAM,C.ROMAGNOLI,J.KARPIAK,B.K.SHOICHET                            

>  <REVDAT>
   2   19-JUN-13 3O86    1       JRNL   VERSN                             
   1   03-NOV-10 3O86    0                                                

>  <JRNL>
      AUTH   O.EIDAM,C.ROMAGNOLI,E.CASELLI,K.BABAOGLU,D.T.POHLHAUS,       
      AUTH 2 J.KARPIAK,R.BONNET,B.K.SHOICHET,F.PRATI                      
      TITL   DESIGN, SYNTHESIS, CRYSTAL STRUCTURES, AND ANTIMICROBIAL     
      TITL 2 ACTIVITY OF SULFONAMIDE BORONIC ACIDS AS BETA-LACTAMASE      
      TITL 3 INHIBITORS                                                   
      REF    J.MED.CHEM.                   V.  53  7852 2010              
      REFN                   ISSN 0022-2623                               
      PMID   20945905                                                     
      DOI    10.1021/JM101015Z                                            

>  <REMARK>
   2                                                                      
   2 RESOLUTION.    1.60 ANGSTROMS.                                       
   3                                                                      
   3 REFINEMENT.                                                          
   3   PROGRAM     : PHENIX (PHENIX.REFINE: 1.6_289)                      
   3   AUTHORS     : PAUL ADAMS,PAVEL AFONINE,VICENT CHEN,IAN             
   3               : DAVIS,KRESHNA GOPAL,RALF GROSSE-                     
   3               : KUNSTLEVE,LI-WEI HUNG,ROBERT IMMORMINO,              
   3               : TOM IOERGER,AIRLIE MCCOY,ERIK MCKEE,NIGEL            
   3               : MORIARTY,REETAL PAI,RANDY READ,JANE                  
   3               : RICHARDSON,DAVID RICHARDSON,TOD ROMO,JIM             
   3               : SACCHETTINI,NICHOLAS SAUTER,JACOB SMITH,             
   3               : LAURENT STORONI,TOM TERWILLIGER,PETER                
   3               : ZWART                                                
   3                                                                      
   3    REFINEMENT TARGET : ENGH & HUBER                                  
   3                                                                      
   3  DATA USED IN REFINEMENT.                                            
   3   RESOLUTION RANGE HIGH (ANGSTROMS) : 1.60                           
   3   RESOLUTION RANGE LOW  (ANGSTROMS) : 29.58                          
   3   MIN(FOBS/SIGMA_FOBS)              : 2.000                          
   3   COMPLETENESS FOR RANGE        (%) : 99.1                           
   3   NUMBER OF REFLECTIONS             : 102732                         
   3                                                                      
   3  FIT TO DATA USED IN REFINEMENT.                                     
   3   R VALUE     (WORKING + TEST SET) : 0.168                           
   3   R VALUE            (WORKING SET) : 0.167                           
   3   FREE R VALUE                     : 0.193                           
   3   FREE R VALUE TEST SET SIZE   (%) : 2.920                           
   3   FREE R VALUE TEST SET COUNT      : 3002                            
   3                                                                      
   3  FIT TO DATA USED IN REFINEMENT (IN BINS).                           
   3   BIN  RESOLUTION RANGE  COMPL.    NWORK NFREE   RWORK  RFREE        
   3     1 29.5887 -  4.4097    0.96     4711   143  0.1519 0.1707        
   3     2  4.4097 -  3.5019    0.99     4777   146  0.1294 0.1456        
   3     3  3.5019 -  3.0598    0.99     4771   144  0.1555 0.1608        
   3     4  3.0598 -  2.7802    0.99     4777   138  0.1721 0.1896        
   3     5  2.7802 -  2.5811    0.99     4756   144  0.1761 0.1988        
   3     6  2.5811 -  2.4290    0.99     4727   142  0.1720 0.2180        
   3     7  2.4290 -  2.3074    0.99     4788   146  0.1690 0.1984        
   3     8  2.3074 -  2.2070    0.99     4709   136  0.1614 0.1888        
   3     9  2.2070 -  2.1220    0.99     4757   145  0.1674 0.1921        
   3    10  2.1220 -  2.0488    0.99     4799   137  0.1664 0.2433        
   3    11  2.0488 -  1.9848    1.00     4754   134  0.1721 0.1939        
   3    12  1.9848 -  1.9281    1.00     4769   129  0.1700 0.2295        
   3    13  1.9281 -  1.8773    1.00     4739   146  0.1723 0.1978        
   3    14  1.8773 -  1.8315    1.00     4771   148  0.1720 0.1949        
   3    15  1.8315 -  1.7899    1.00     4787   148  0.1778 0.2149        
   3    16  1.7899 -  1.7518    1.00     4708   145  0.1859 0.2368        
   3    17  1.7518 -  1.7168    1.00     4767   148  0.1926 0.2345        
   3    18  1.7168 -  1.6844    1.00     4776   147  0.2028 0.2398        
   3    19  1.6844 -  1.6543    1.00     4774   148  0.2071 0.2322        
   3    20  1.6543 -  1.6263    1.00     4758   147  0.2268 0.2555        
   3    21  1.6263 -  1.6000    0.96     4555   141  0.2560 0.2963        
   3                                                                      
   3  BULK SOLVENT MODELLING.                                             
   3   METHOD USED        : FLAT BULK SOLVENT MODEL                       
   3   SOLVENT RADIUS     : 1.11                                          
   3   SHRINKAGE RADIUS   : 0.90                                          
   3   K_SOL              : 0.37                                          
   3   B_SOL              : 50.05                                         
   3                                                                      
   3  ERROR ESTIMATES.                                                    
   3   COORDINATE ERROR (MAXIMUM-LIKELIHOOD BASED)     : 0.180            
   3   PHASE ERROR (DEGREES, MAXIMUM-LIKELIHOOD BASED) : NULL             
   3                                                                      
   3  B VALUES.                                                           
   3   FROM WILSON PLOT           (A**2) : 20.90                          
   3   MEAN B VALUE      (OVERALL, A**2) : 22.66                          
   3   OVERALL ANISOTROPIC B VALUE.                                       
   3    B11 (A**2) : -0.12800                                             
   3    B22 (A**2) : -0.47020                                             
   3    B33 (A**2) : 0.59820                                              
   3    B12 (A**2) : -0.00000                                             
   3    B13 (A**2) : 4.40570                                              
   3    B23 (A**2) : -0.00000                                             
   3                                                                      
   3  TWINNING INFORMATION.                                               
   3   FRACTION: NULL                                                     
   3   OPERATOR: NULL                                                     
   3                                                                      
   3  DEVIATIONS FROM IDEAL VALUES.                                       
   3                 RMSD          COUNT                                  
   3   BOND      :  0.010           5761                                  
   3   ANGLE     :  1.323           7919                                  
   3   CHIRALITY :  0.090            875                                  
   3   PLANARITY :  0.007           1014                                  
   3   DIHEDRAL  : 14.554           2037                                  
   3                                                                      
   3  TLS DETAILS                                                         
   3   NUMBER OF TLS GROUPS  : NULL                                       
   3                                                                      
   3  NCS DETAILS                                                         
   3   NUMBER OF NCS GROUPS : NULL                                        
   3                                                                      
   3  OTHER REFINEMENT REMARKS: NULL                                      
   4                                                                      
   4 3O86 COMPLIES WITH FORMAT V. 3.30, 13-JUL-11                         
 100                                                                      
 100 THIS ENTRY HAS BEEN PROCESSED BY RCSB ON 03-AUG-10.                  
 100 THE RCSB ID CODE IS RCSB060786.                                      
 200                                                                      
 200 EXPERIMENTAL DETAILS                                                 
 200  EXPERIMENT TYPE                : X-RAY DIFFRACTION                  
 200  DATE OF DATA COLLECTION        : 09-APR-10                          
 200  TEMPERATURE           (KELVIN) : 100                                
 200  PH                             : 8.7                                
 200  NUMBER OF CRYSTALS USED        : 1                                  
 200                                                                      
 200  SYNCHROTRON              (Y/N) : Y                                  
 200  RADIATION SOURCE               : ALS                                
 200  BEAMLINE                       : 8.3.1                              
 200  X-RAY GENERATOR MODEL          : NULL                               
 200  MONOCHROMATIC OR LAUE    (M/L) : M                                  
 200  WAVELENGTH OR RANGE        (A) : 1.115872                           
 200  MONOCHROMATOR                  : DOUBLE CRYSTAL                     
 200  OPTICS                         : NULL                               
 200                                                                      
 200  DETECTOR TYPE                  : CCD                                
 200  DETECTOR MANUFACTURER          : ADSC QUANTUM 315R                  
 200  INTENSITY-INTEGRATION SOFTWARE : XDS                                
 200  DATA SCALING SOFTWARE          : XSCALE                             
 200                                                                      
 200  NUMBER OF UNIQUE REFLECTIONS   : 102737                             
 200  RESOLUTION RANGE HIGH      (A) : 1.600                              
 200  RESOLUTION RANGE LOW       (A) : 30.000                             
 200  REJECTION CRITERIA  (SIGMA(I)) : -3.000                             
 200                                                                      
 200 OVERALL.                                                             
 200  COMPLETENESS FOR RANGE     (%) : 99.0                               
 200  DATA REDUNDANCY                : 3.850                              
 200  R MERGE                    (I) : 0.04500                            
 200  R SYM                      (I) : NULL                               
 200  <I/SIGMA(I)> FOR THE DATA SET  : 16.4200                            
 200                                                                      
 200 IN THE HIGHEST RESOLUTION SHELL.                                     
 200  HIGHEST RESOLUTION SHELL, RANGE HIGH (A) : 1.60                     
 200  HIGHEST RESOLUTION SHELL, RANGE LOW  (A) : 1.69                     
 200  COMPLETENESS FOR SHELL     (%) : 98.6                               
 200  DATA REDUNDANCY IN SHELL       : NULL                               
 200  R MERGE FOR SHELL          (I) : 0.44000                            
 200  R SYM FOR SHELL            (I) : NULL                               
 200  <I/SIGMA(I)> FOR SHELL         : 3.100                              
 200                                                                      
 200 DIFFRACTION PROTOCOL: SINGLE WAVELENGTH                              
 200 METHOD USED TO DETERMINE THE STRUCTURE: MOLECULAR REPLACEMENT        
 200 SOFTWARE USED: PHENIX (PHENIX.REFINE: 1.6_289)                       
 200 STARTING MODEL: PDB ENTRY 1KE4                                       
 200                                                                      
 200 REMARK: NULL                                                         
 280                                                                      
 280 CRYSTAL                                                              
 280 SOLVENT CONTENT, VS   (%): 51.22                                     
 280 MATTHEWS COEFFICIENT, VM (ANGSTROMS**3/DA): 2.52                     
 280                                                                      
 280 CRYSTALLIZATION CONDITIONS: 1.7 M POTASSIUM PHOSPHATE, PH 8.7,       
 280  VAPOR DIFFUSION, HANGING DROP, TEMPERATURE 293K                     
 290                                                                      
 290 CRYSTALLOGRAPHIC SYMMETRY                                            
 290 SYMMETRY OPERATORS FOR SPACE GROUP: C 1 2 1                          
 290                                                                      
 290      SYMOP   SYMMETRY                                                
 290     NNNMMM   OPERATOR                                                
 290       1555   X,Y,Z                                                   
 290       2555   -X,Y,-Z                                                 
 290       3555   X+1/2,Y+1/2,Z                                           
 290       4555   -X+1/2,Y+1/2,-Z                                         
 290                                                                      
 290     WHERE NNN -> OPERATOR NUMBER                                     
 290           MMM -> TRANSLATION VECTOR                                  
 290                                                                      
 290 CRYSTALLOGRAPHIC SYMMETRY TRANSFORMATIONS                            
 290 THE FOLLOWING TRANSFORMATIONS OPERATE ON THE ATOM/HETATM             
 290 RECORDS IN THIS ENTRY TO PRODUCE CRYSTALLOGRAPHICALLY                
 290 RELATED MOLECULES.                                                   
 290   SMTRY1   1  1.000000  0.000000  0.000000        0.00000            
 290   SMTRY2   1  0.000000  1.000000  0.000000        0.00000            
 290   SMTRY3   1  0.000000  0.000000  1.000000        0.00000            
 290   SMTRY1   2 -1.000000  0.000000  0.000000        0.00000            
 290   SMTRY2   2  0.000000  1.000000  0.000000        0.00000            
 290   SMTRY3   2  0.000000  0.000000 -1.000000        0.00000            
 290   SMTRY1   3  1.000000  0.000000  0.000000       59.17000            
 290   SMTRY2   3  0.000000  1.000000  0.000000       38.44000            
 290   SMTRY3   3  0.000000  0.000000  1.000000        0.00000            
 290   SMTRY1   4 -1.000000  0.000000  0.000000       59.17000            
 290   SMTRY2   4  0.000000  1.000000  0.000000       38.44000            
 290   SMTRY3   4  0.000000  0.000000 -1.000000        0.00000            
 290                                                                      
 290 REMARK: NULL                                                         
 300                                                                      
 300 BIOMOLECULE: 1, 2                                                    
 300 SEE REMARK 350 FOR THE AUTHOR PROVIDED AND/OR PROGRAM                
 300 GENERATED ASSEMBLY INFORMATION FOR THE STRUCTURE IN                  
 300 THIS ENTRY. THE REMARK MAY ALSO PROVIDE INFORMATION ON               
 300 BURIED SURFACE AREA.                                                 
 350                                                                      
 350 COORDINATES FOR A COMPLETE MULTIMER REPRESENTING THE KNOWN           
 350 BIOLOGICALLY SIGNIFICANT OLIGOMERIZATION STATE OF THE                
 350 MOLECULE CAN BE GENERATED BY APPLYING BIOMT TRANSFORMATIONS          
 350 GIVEN BELOW.  BOTH NON-CRYSTALLOGRAPHIC AND                          
 350 CRYSTALLOGRAPHIC OPERATIONS ARE GIVEN.                               
 350                                                                      
 350 BIOMOLECULE: 1                                                       
 350 AUTHOR DETERMINED BIOLOGICAL UNIT: MONOMERIC                         
 350 SOFTWARE DETERMINED QUATERNARY STRUCTURE: MONOMERIC                  
 350 SOFTWARE USED: PISA                                                  
 350 APPLY THE FOLLOWING TO CHAINS: A                                     
 350   BIOMT1   1  1.000000  0.000000  0.000000        0.00000            
 350   BIOMT2   1  0.000000  1.000000  0.000000        0.00000            
 350   BIOMT3   1  0.000000  0.000000  1.000000        0.00000            
 350                                                                      
 350 BIOMOLECULE: 2                                                       
 350 AUTHOR DETERMINED BIOLOGICAL UNIT: MONOMERIC                         
 350 SOFTWARE DETERMINED QUATERNARY STRUCTURE: MONOMERIC                  
 350 SOFTWARE USED: PISA                                                  
 350 APPLY THE FOLLOWING TO CHAINS: B                                     
 350   BIOMT1   1  1.000000  0.000000  0.000000        0.00000            
 350   BIOMT2   1  0.000000  1.000000  0.000000        0.00000            
 350   BIOMT3   1  0.000000  0.000000  1.000000        0.00000            
 465                                                                      
 465 MISSING RESIDUES                                                     
 465 THE FOLLOWING RESIDUES WERE NOT LOCATED IN THE                       
 465 EXPERIMENT. (M=MODEL NUMBER; RES=RESIDUE NAME; C=CHAIN               
 465 IDENTIFIER; SSSEQ=SEQUENCE NUMBER; I=INSERTION CODE.)                
 465                                                                      
 465   M RES C SSSEQI                                                     
 465     ILE A   284                                                      
 465     ASN A   285                                                      
 465     GLY A   286                                                      
 465     SER A   287                                                      
 465     ASP A   288                                                      
 465     ASN A   289                                                      
 465     LYS A   290                                                      
 470                                                                      
 470 MISSING ATOM                                                         
 470 THE FOLLOWING RESIDUES HAVE MISSING ATOMS (M=MODEL NUMBER;           
 470 RES=RESIDUE NAME; C=CHAIN IDENTIFIER; SSEQ=SEQUENCE NUMBER;          
 470 I=INSERTION CODE):                                                   
 470   M RES CSSEQI  ATOMS                                                
 470     GLU A  21    CD   OE1  OE2                                       
 470     GLN A  22    CG   CD   OE1  NE2                                  
 470     LYS A  24    CE   NZ                                             
 470     LYS A  37    CG   CD   CE   NZ                                   
 470     LYS A  99    CG   CD   CE   NZ                                   
 470     ASP A 123    OD1  OD2                                            
 470     LYS A 126    NZ                                                  
 470     SER A 129    OG                                                  
 470     GLU A 205    CD   OE1  OE2                                       
 470     LYS A 207    CD   CE   NZ                                        
 470     LYS A 239    CE   NZ                                             
 470     ASP A 242    CG   OD1  OD2                                       
 470     ASN A 244    CG   OD1  ND2                                       
 470     LYS A 246    CG   CD   CE   NZ                                   
 470     ASN A 279    CG   OD1  ND2                                       
 470     PRO A 280    O                                                   
 470     ASP A 281    CG   OD1  OD2                                       
 470     LYS A 299    CD   CE   NZ                                        
 470     GLU A 333    OE1  OE2                                            
 470     GLN B   7    OE1  NE2                                            
 470     LYS B  24    CE   NZ                                             
 470     LYS B  37    CG   CD   CE   NZ                                   
 470     LYS B  50    CG   CD   CE   NZ                                   
 470     LYS B  51    NZ                                                  
 470     GLN B  52    CD   OE1  NE2                                       
 470     GLN B  57    CD   OE1  NE2                                       
 470     LYS B  84    NZ                                                  
 470     LYS B  91    NZ                                                  
 470     GLU B  95    CG   CD   OE1  OE2                                  
 470     LYS B 126    CG   CD   CE   NZ                                   
 470     LYS B 164    NZ                                                  
 470     LYS B 197    NZ                                                  
 470     GLU B 205    CD   OE1  OE2                                       
 470     LYS B 207    CD   CE   NZ                                        
 470     LYS B 239    CE   NZ                                             
 470     LEU B 241    CD1  CD2                                            
 470     LYS B 246    CG   CD   CE   NZ                                   
 470     LYS B 299    CD   CE   NZ                                        
 470     GLU B 333    OE1  OE2                                            
 500                                                                      
 500 GEOMETRY AND STEREOCHEMISTRY                                         
 500 SUBTOPIC: TORSION ANGLES                                             
 500                                                                      
 500 TORSION ANGLES OUTSIDE THE EXPECTED RAMACHANDRAN REGIONS:            
 500 (M=MODEL NUMBER; RES=RESIDUE NAME; C=CHAIN IDENTIFIER;               
 500 SSEQ=SEQUENCE NUMBER; I=INSERTION CODE).                             
 500                                                                      
 500 STANDARD TABLE:                                                      
 500 FORMAT:(10X,I3,1X,A3,1X,A1,I4,A1,4X,F7.2,3X,F7.2)                    
 500                                                                      
 500 EXPECTED VALUES: GJ KLEYWEGT AND TA JONES (1996). PHI/PSI-           
 500 CHOLOGY: RAMACHANDRAN REVISITED. STRUCTURE 4, 1395 - 1400            
 500                                                                      
 500  M RES CSSEQI        PSI       PHI                                   
 500    VAL A 178      -57.38   -122.46                                   
 500    TYR A 221       18.54   -157.82                                   
 500    ALA A 307      117.15    -35.03                                   
 500    ASN A 341       42.21    -96.51                                   
 500    LYS B 126      -54.89   -122.73                                   
 500    VAL B 178      -58.02   -122.16                                   
 500    TYR B 221       25.43   -160.21                                   
 500    ASN B 341       43.05   -100.08                                   
 500                                                                      
 500 REMARK: NULL                                                         
 800                                                                      
 800 SITE                                                                 
 800 SITE_IDENTIFIER: AC1                                                 
 800 EVIDENCE_CODE: SOFTWARE                                              
 800 SITE_DESCRIPTION: BINDING SITE FOR RESIDUE BSF A 1                   
 800                                                                      
 800 SITE_IDENTIFIER: AC2                                                 
 800 EVIDENCE_CODE: SOFTWARE                                              
 800 SITE_DESCRIPTION: BINDING SITE FOR RESIDUE PO4 A 2                   
 800                                                                      
 800 SITE_IDENTIFIER: AC3                                                 
 800 EVIDENCE_CODE: SOFTWARE                                              
 800 SITE_DESCRIPTION: BINDING SITE FOR RESIDUE BSF B 2                   
 800                                                                      
 800 SITE_IDENTIFIER: AC4                                                 
 800 EVIDENCE_CODE: SOFTWARE                                              
 800 SITE_DESCRIPTION: BINDING SITE FOR RESIDUE PO4 B 3                   
 900                                                                      
 900 RELATED ENTRIES                                                      
 900 RELATED ID: 3O87   RELATED DB: PDB                                   
 900 RELATED ID: 3O88   RELATED DB: PDB                                   

>  <DBREF>
 3O86 A    4   361  UNP    P00811   AMPC_ECOLI      20    377             
 3O86 B    4   361  UNP    P00811   AMPC_ECOLI      20    377             

>  <SEQRES>
   1 A  358  ALA PRO GLN GLN ILE ASN ASP ILE VAL HIS ARG THR ILE          
   2 A  358  THR PRO LEU ILE GLU GLN GLN LYS ILE PRO GLY MET ALA          
   3 A  358  VAL ALA VAL ILE TYR GLN GLY LYS PRO TYR TYR PHE THR          
   4 A  358  TRP GLY TYR ALA ASP ILE ALA LYS LYS GLN PRO VAL THR          
   5 A  358  GLN GLN THR LEU PHE GLU LEU GLY SER VAL SER LYS THR          
   6 A  358  PHE THR GLY VAL LEU GLY GLY ASP ALA ILE ALA ARG GLY          
   7 A  358  GLU ILE LYS LEU SER ASP PRO THR THR LYS TYR TRP PRO          
   8 A  358  GLU LEU THR ALA LYS GLN TRP ASN GLY ILE THR LEU LEU          
   9 A  358  HIS LEU ALA THR TYR THR ALA GLY GLY LEU PRO LEU GLN          
  10 A  358  VAL PRO ASP GLU VAL LYS SER SER SER ASP LEU LEU ARG          
  11 A  358  PHE TYR GLN ASN TRP GLN PRO ALA TRP ALA PRO GLY THR          
  12 A  358  GLN ARG LEU TYR ALA ASN SER SER ILE GLY LEU PHE GLY          
  13 A  358  ALA LEU ALA VAL LYS PRO SER GLY LEU SER PHE GLU GLN          
  14 A  358  ALA MET GLN THR ARG VAL PHE GLN PRO LEU LYS LEU ASN          
  15 A  358  HIS THR TRP ILE ASN VAL PRO PRO ALA GLU GLU LYS ASN          
  16 A  358  TYR ALA TRP GLY TYR ARG GLU GLY LYS ALA VAL HIS VAL          
  17 A  358  SER PRO GLY ALA LEU ASP ALA GLU ALA TYR GLY VAL LYS          
  18 A  358  SER THR ILE GLU ASP MET ALA ARG TRP VAL GLN SER ASN          
  19 A  358  LEU LYS PRO LEU ASP ILE ASN GLU LYS THR LEU GLN GLN          
  20 A  358  GLY ILE GLN LEU ALA GLN SER ARG TYR TRP GLN THR GLY          
  21 A  358  ASP MET TYR GLN GLY LEU GLY TRP GLU MET LEU ASP TRP          
  22 A  358  PRO VAL ASN PRO ASP SER ILE ILE ASN GLY SER ASP ASN          
  23 A  358  LYS ILE ALA LEU ALA ALA ARG PRO VAL LYS ALA ILE THR          
  24 A  358  PRO PRO THR PRO ALA VAL ARG ALA SER TRP VAL HIS LYS          
  25 A  358  THR GLY ALA THR GLY GLY PHE GLY SER TYR VAL ALA PHE          
  26 A  358  ILE PRO GLU LYS GLU LEU GLY ILE VAL MET LEU ALA ASN          
  27 A  358  LYS ASN TYR PRO ASN PRO ALA ARG VAL ASP ALA ALA TRP          
  28 A  358  GLN ILE LEU ASN ALA LEU GLN                                  
   1 B  358  ALA PRO GLN GLN ILE ASN ASP ILE VAL HIS ARG THR ILE          
   2 B  358  THR PRO LEU ILE GLU GLN GLN LYS ILE PRO GLY MET ALA          
   3 B  358  VAL ALA VAL ILE TYR GLN GLY LYS PRO TYR TYR PHE THR          
   4 B  358  TRP GLY TYR ALA ASP ILE ALA LYS LYS GLN PRO VAL THR          
   5 B  358  GLN GLN THR LEU PHE GLU LEU GLY SER VAL SER LYS THR          
   6 B  358  PHE THR GLY VAL LEU GLY GLY ASP ALA ILE ALA ARG GLY          
   7 B  358  GLU ILE LYS LEU SER ASP PRO THR THR LYS TYR TRP PRO          
   8 B  358  GLU LEU THR ALA LYS GLN TRP ASN GLY ILE THR LEU LEU          
   9 B  358  HIS LEU ALA THR TYR THR ALA GLY GLY LEU PRO LEU GLN          
  10 B  358  VAL PRO ASP GLU VAL LYS SER SER SER ASP LEU LEU ARG          
  11 B  358  PHE TYR GLN ASN TRP GLN PRO ALA TRP ALA PRO GLY THR          
  12 B  358  GLN ARG LEU TYR ALA ASN SER SER ILE GLY LEU PHE GLY          
  13 B  358  ALA LEU ALA VAL LYS PRO SER GLY LEU SER PHE GLU GLN          
  14 B  358  ALA MET GLN THR ARG VAL PHE GLN PRO LEU LYS LEU ASN          
  15 B  358  HIS THR TRP ILE ASN VAL PRO PRO ALA GLU GLU LYS ASN          
  16 B  358  TYR ALA TRP GLY TYR ARG GLU GLY LYS ALA VAL HIS VAL          
  17 B  358  SER PRO GLY ALA LEU ASP ALA GLU ALA TYR GLY VAL LYS          
  18 B  358  SER THR ILE GLU ASP MET ALA ARG TRP VAL GLN SER ASN          
  19 B  358  LEU LYS PRO LEU ASP ILE ASN GLU LYS THR LEU GLN GLN          
  20 B  358  GLY ILE GLN LEU ALA GLN SER ARG TYR TRP GLN THR GLY          
  21 B  358  ASP MET TYR GLN GLY LEU GLY TRP GLU MET LEU ASP TRP          
  22 B  358  PRO VAL ASN PRO ASP SER ILE ILE ASN GLY SER ASP ASN          
  23 B  358  LYS ILE ALA LEU ALA ALA ARG PRO VAL LYS ALA ILE THR          
  24 B  358  PRO PRO THR PRO ALA VAL ARG ALA SER TRP VAL HIS LYS          
  25 B  358  THR GLY ALA THR GLY GLY PHE GLY SER TYR VAL ALA PHE          
  26 B  358  ILE PRO GLU LYS GLU LEU GLY ILE VAL MET LEU ALA ASN          
  27 B  358  LYS ASN TYR PRO ASN PRO ALA ARG VAL ASP ALA ALA TRP          
  28 B  358  GLN ILE LEU ASN ALA LEU GLN                                  

>  <HET>
 BSF  A   1      15                                                       
 PO4  A   2       5                                                       
 BSF  B   2      15                                                       
 PO4  B   3       5                                                       

>  <HETNAM>
     BSF {[(BENZYLSULFONYL)AMINO]METHYL}BORONIC ACID                      
     PO4 PHOSPHATE ION                                                    

>  <FORMUL>
   3  BSF    2(C8 H12 B N O4 S)                                           
   4  PO4    2(O4 P 3-)                                                   
   7  HOH   *819(H2 O)                                                    

>  <HELIX>
   1   1 PRO A    5  LYS A   24  1                                  20    
   2   2 VAL A   65  ARG A   80  1                                  16    
   3   3 PRO A   88  TYR A   92  5                                   5    
   4   4 ALA A   98  ASN A  102  5                                   5    
   5   5 THR A  105  THR A  111  1                                   7    
   6   6 SER A  127  TRP A  138  1                                  12    
   7   7 ALA A  151  VAL A  163  1                                  13    
   8   8 SER A  169  VAL A  178  1                                  10    
   9   9 PRO A  192  TYR A  199  5                                   8    
  10  10 LEU A  216  TYR A  221  1                                   6    
  11  11 THR A  226  LYS A  239  1                                  14    
  12  12 PRO A  240  ILE A  243  5                                   4    
  13  13 GLU A  245  GLN A  256  1                                  12    
  14  14 PRO A  330  GLU A  333  5                                   4    
  15  15 PRO A  345  GLN A  361  1                                  17    
  16  16 PRO B    5  LYS B   24  1                                  20    
  17  17 VAL B   65  ARG B   80  1                                  16    
  18  18 PRO B   88  TYR B   92  5                                   5    
  19  19 ALA B   98  ASN B  102  5                                   5    
  20  20 THR B  105  THR B  111  1                                   7    
  21  21 SER B  127  TRP B  138  1                                  12    
  22  22 ALA B  151  VAL B  163  1                                  13    
  23  23 LYS B  164  GLY B  167  5                                   4    
  24  24 SER B  169  VAL B  178  1                                  10    
  25  25 PRO B  192  TYR B  199  5                                   8    
  26  26 LEU B  216  GLY B  222  1                                   7    
  27  27 THR B  226  LYS B  239  1                                  14    
  28  28 PRO B  240  ILE B  243  5                                   4    
  29  29 GLU B  245  GLN B  256  1                                  12    
  30  30 ASN B  279  SER B  287  1                                   9    
  31  31 ASP B  288  LEU B  293  1                                   6    
  32  32 PRO B  330  GLU B  333  5                                   4    
  33  33 PRO B  345  GLN B  361  1                                  17    

>  <SHEET>
   1   A10 GLN A  52  PRO A  53  0                                        
   2   A10 LYS A  37  ASP A  47 -1  N  ALA A  46   O  GLN A  52           
   3   A10 GLY A  27  TYR A  34 -1  N  VAL A  30   O  PHE A  41           
   4   A10 LEU A 334  ALA A 340 -1  O  LEU A 339   N  ALA A  29           
   5   A10 GLY A 323  ILE A 329 -1  N  TYR A 325   O  MET A 338           
   6   A10 SER A 311  ALA A 318 -1  N  GLY A 317   O  SER A 324           
   7   A10 GLU A 272  ASP A 275 -1  N  GLU A 272   O  HIS A 314           
   8   A10 MET A 265  GLN A 267 -1  N  TYR A 266   O  MET A 273           
   9   A10 ARG A 258  THR A 262 -1  N  THR A 262   O  MET A 265           
  10   A10 LYS A 299  THR A 305 -1  O  THR A 305   N  ARG A 258           
   1   B 2 PHE A  60  GLU A  61  0                                        
   2   B 2 LYS A 224  SER A 225 -1  O  SER A 225   N  PHE A  60           
   1   C 2 GLN A 147  ARG A 148  0                                        
   2   C 2 ARG A 296  PRO A 297 -1  O  ARG A 296   N  ARG A 148           
   1   D 2 GLY A 202  ARG A 204  0                                        
   2   D 2 LYS A 207  VAL A 209 -1  O  VAL A 209   N  GLY A 202           
   1   E10 GLN B  52  PRO B  53  0                                        
   2   E10 LYS B  37  ASP B  47 -1  N  ALA B  46   O  GLN B  52           
   3   E10 GLY B  27  TYR B  34 -1  N  VAL B  30   O  PHE B  41           
   4   E10 LEU B 334  ALA B 340 -1  O  GLY B 335   N  ILE B  33           
   5   E10 GLY B 323  ILE B 329 -1  N  TYR B 325   O  MET B 338           
   6   E10 SER B 311  ALA B 318 -1  N  GLY B 317   O  SER B 324           
   7   E10 GLU B 272  ASP B 275 -1  N  GLU B 272   O  HIS B 314           
   8   E10 MET B 265  GLN B 267 -1  N  TYR B 266   O  MET B 273           
   9   E10 ARG B 258  THR B 262 -1  N  THR B 262   O  MET B 265           
  10   E10 LYS B 299  THR B 305 -1  O  THR B 305   N  ARG B 258           
   1   F 2 PHE B  60  GLU B  61  0                                        
   2   F 2 LYS B 224  SER B 225 -1  O  SER B 225   N  PHE B  60           
   1   G 2 GLN B 147  ARG B 148  0                                        
   2   G 2 ARG B 296  PRO B 297 -1  O  ARG B 296   N  ARG B 148           
   1   H 2 GLY B 202  ARG B 204  0                                        
   2   H 2 LYS B 207  VAL B 209 -1  O  VAL B 209   N  GLY B 202           

>  <LINK>
       OG  SER A  64                 BORABSF A   1     1555   1555  1.51  
       OG  SER B  64                 BORABSF B   2     1555   1555  1.49  

>  <CISPEP>
   1 TRP A  276    PRO A  277          0         4.51                     
   2 THR A  302    PRO A  303          0        -0.62                     
   3 TRP B  276    PRO B  277          0         2.55                     
   4 THR B  302    PRO B  303          0         1.24                     

>  <SITE>
   1 AC1  9 SER A  64  TYR A 150  ASN A 152  TYR A 221                    
   2 AC1  9 GLY A 317  ALA A 318  HOH A 449  HOH A 637                    
   3 AC1  9 HOH A 638                                                     
   1 AC2  3 HOH A 471  ARG B  80  HOH B 531                               
   1 AC3  9 SER B  64  GLN B 120  TYR B 150  ASN B 152                    
   2 AC3  9 TYR B 221  GLY B 317  ALA B 318  HOH B 528                    
   3 AC3  9 HOH B 529                                                     
   1 AC4  8 ARG A 133  HIS A 186  HOH A 512  HOH A 554                    
   2 AC4  8 HOH A 621  HOH A 653  LYS B 290  HOH B 662                    

>  <ORIGX1>
      1.000000  0.000000  0.000000        0.00000                         

>  <ORIGX2>
      0.000000  1.000000  0.000000        0.00000                         

>  <ORIGX3>
      0.000000  0.000000  1.000000        0.00000                         

>  <SCALE1>
      0.008450  0.000000  0.004142        0.00000                         

>  <SCALE2>
      0.000000  0.013007  0.000000        0.00000                         

>  <SCALE3>
      0.000000  0.000000  0.011392        0.00000                         

>  <MASTER>
      324    0    4   33   32    0    9    6 6307    2   42   56          

$$$$
