start_structures/Ligand_Substrate/Ligand_Complex_Stripped/BSG_3O87.pdb
 OpenBabel08222315203D

 24 24  0  0  1  0  0  0  0  0999 V2000
   26.9110    1.0870   16.0790 N   0  0  0  0  0  0  0  0  0  0  0  0
   28.2690    1.5330   16.3870 C   0  0  2  0  0  0  0  0  0  0  0  0
   29.1530    0.6210   17.2460 C   0  0  0  0  0  0  0  0  0  0  0  0
   30.3660    0.8760   17.3530 O   0  0  0  0  0  0  0  0  0  0  0  0
   28.2170    2.9240   17.0040 C   0  0  0  0  0  0  0  0  0  0  0  0
   27.8730    3.7890   15.9610 O   0  0  0  0  0  0  0  0  0  0  0  0
   20.2640    3.4890    7.7590 O   0  0  0  0  0  0  0  0  0  0  0  0
   23.3110    7.5490   13.6990 O   0  0  0  0  0  0  0  0  0  0  0  0
   25.0880    6.4700   12.2740 O   0  0  0  0  0  0  0  0  0  0  0  0
   18.7330    4.5790    8.9100 O   0  0  0  0  0  0  0  0  0  0  0  0
   26.8370    5.5020   17.4030 O   0  0  0  0  0  0  0  0  0  0  0  0
   25.5960    3.5700   16.5190 O   0  0  0  0  0  0  0  0  0  0  0  0
   23.0260    4.2170   10.9780 C   0  0  0  0  0  0  0  0  0  0  0  0
   21.1230    5.0140   12.2490 C   0  0  0  0  0  0  0  0  0  0  0  0
   22.2100    4.0070    9.8720 C   0  0  0  0  0  0  0  0  0  0  0  0
   20.3140    4.8000   11.1390 C   0  0  0  0  0  0  0  0  0  0  0  0
   26.3370    5.3820   14.7750 C   0  0  0  0  0  0  0  0  0  0  0  0
   23.3120    4.8770   13.3970 C   0  0  0  0  0  0  0  0  0  0  0  0
   25.1090    6.1560   14.9400 N   0  0  0  0  0  0  0  0  0  0  0  0
   19.8850    4.1120    8.7760 C   0  0  0  0  0  0  0  0  0  0  0  0
   22.4750    4.7190   12.1550 C   0  0  0  0  0  0  0  0  0  0  0  0
   20.8590    4.3610    9.9370 C   0  0  0  0  0  0  0  0  0  0  0  0
   24.2830    6.4080   13.5320 S   0  0  0  0  0  0  0  0  0  0  0  0
   26.6460    4.6420   16.1840 B   0  0  0  0  0  0  0  0  0  0  0  0
  2  1  1  1  0  0  0
  2  5  1  0  0  0  0
  2  3  1  0  0  0  0
  3  4  2  0  0  0  0
  6 24  1  0  0  0  0
  6  5  1  0  0  0  0
  7 20  2  0  0  0  0
  8 23  2  0  0  0  0
  9 23  2  0  0  0  0
 10 20  1  0  0  0  0
 11 24  1  0  0  0  0
 12 24  1  0  0  0  0
 13 15  2  0  0  0  0
 13 21  1  0  0  0  0
 14 16  1  0  0  0  0
 14 21  2  0  0  0  0
 15 22  1  0  0  0  0
 16 22  2  0  0  0  0
 17 19  1  0  0  0  0
 17 24  1  0  0  0  0
 18 21  1  0  0  0  0
 18 23  1  0  0  0  0
 19 23  1  0  0  0  0
 20 22  1  0  0  0  0
M  END
>  <HEADER>
    HYDROLASE                               02-AUG-10   3O87              

>  <TITLE>
    CRYSTAL STRUCTURE OF AMPC BETA-LACTAMASE IN COMPLEX WITH A SULFONAMIDE
   2 BORONIC ACID INHIBITOR                                               

>  <COMPND>
    MOL_ID: 1;                                                            
   2 MOLECULE: BETA-LACTAMASE;                                            
   3 CHAIN: A, B;                                                         
   4 FRAGMENT: BETA-LACTAMASE;                                            
   5 SYNONYM: CEPHALOSPORINASE;                                           
   6 EC: 3.5.2.6;                                                         
   7 ENGINEERED: YES                                                      

>  <SOURCE>
    MOL_ID: 1;                                                            
   2 ORGANISM_SCIENTIFIC: ESCHERICHIA COLI;                               
   3 ORGANISM_TAXID: 83333;                                               
   4 STRAIN: K12;                                                         
   5 GENE: AMPA, AMPC, B4150, JW4111;                                     
   6 EXPRESSION_SYSTEM: ESCHERICHIA COLI;                                 
   7 EXPRESSION_SYSTEM_TAXID: 562;                                        
   8 EXPRESSION_SYSTEM_STRAIN: JM109;                                     
   9 EXPRESSION_SYSTEM_VECTOR_TYPE: PLASMID;                              
  10 EXPRESSION_SYSTEM_PLASMID: POGO295                                   

>  <KEYWDS>
    CONTAINS ALPHA HELICES AND A BETA SANDWICH / BETA-LACTAMASE-LIKE FOLD 
   2 / AMPC BETA-LACTAMASE, CLASS C, HYDROLASE, CEPHALOSPORINASE          

>  <EXPDTA>
    X-RAY DIFFRACTION                                                     

>  <AUTHOR>
    O.EIDAM,C.ROMAGNOLI,J.KARPIAK,B.K.SHOICHET                            

>  <REVDAT>
   2   19-JUN-13 3O87    1       JRNL   VERSN                             
   1   03-NOV-10 3O87    0                                                

>  <JRNL>
      AUTH   O.EIDAM,C.ROMAGNOLI,E.CASELLI,K.BABAOGLU,D.T.POHLHAUS,       
      AUTH 2 J.KARPIAK,R.BONNET,B.K.SHOICHET,F.PRATI                      
      TITL   DESIGN, SYNTHESIS, CRYSTAL STRUCTURES, AND ANTIMICROBIAL     
      TITL 2 ACTIVITY OF SULFONAMIDE BORONIC ACIDS AS BETA-LACTAMASE      
      TITL 3 INHIBITORS                                                   
      REF    J.MED.CHEM.                   V.  53  7852 2010              
      REFN                   ISSN 0022-2623                               
      PMID   20945905                                                     
      DOI    10.1021/JM101015Z                                            

>  <REMARK>
   2                                                                      
   2 RESOLUTION.    1.78 ANGSTROMS.                                       
   3                                                                      
   3 REFINEMENT.                                                          
   3   PROGRAM     : PHENIX (PHENIX.REFINE: 1.6_289)                      
   3   AUTHORS     : PAUL ADAMS,PAVEL AFONINE,VICENT CHEN,IAN             
   3               : DAVIS,KRESHNA GOPAL,RALF GROSSE-                     
   3               : KUNSTLEVE,LI-WEI HUNG,ROBERT IMMORMINO,              
   3               : TOM IOERGER,AIRLIE MCCOY,ERIK MCKEE,NIGEL            
   3               : MORIARTY,REETAL PAI,RANDY READ,JANE                  
   3               : RICHARDSON,DAVID RICHARDSON,TOD ROMO,JIM             
   3               : SACCHETTINI,NICHOLAS SAUTER,JACOB SMITH,             
   3               : LAURENT STORONI,TOM TERWILLIGER,PETER                
   3               : ZWART                                                
   3                                                                      
   3    REFINEMENT TARGET : ENGH & HUBER                                  
   3                                                                      
   3  DATA USED IN REFINEMENT.                                            
   3   RESOLUTION RANGE HIGH (ANGSTROMS) : 1.78                           
   3   RESOLUTION RANGE LOW  (ANGSTROMS) : 38.43                          
   3   MIN(FOBS/SIGMA_FOBS)              : 1.990                          
   3   COMPLETENESS FOR RANGE        (%) : 97.7                           
   3   NUMBER OF REFLECTIONS             : 72662                          
   3                                                                      
   3  FIT TO DATA USED IN REFINEMENT.                                     
   3   R VALUE     (WORKING + TEST SET) : 0.189                           
   3   R VALUE            (WORKING SET) : 0.188                           
   3   FREE R VALUE                     : 0.232                           
   3   FREE R VALUE TEST SET SIZE   (%) : 2.000                           
   3   FREE R VALUE TEST SET COUNT      : 1454                            
   3                                                                      
   3  FIT TO DATA USED IN REFINEMENT (IN BINS).                           
   3   BIN  RESOLUTION RANGE  COMPL.    NWORK NFREE   RWORK  RFREE        
   3     1 38.4409 -  3.8337    0.98     7253   149  0.1582 0.1849        
   3     2  3.8337 -  3.0433    0.97     7079   144  0.1673 0.1836        
   3     3  3.0433 -  2.6588    0.98     7149   146  0.1998 0.2429        
   3     4  2.6588 -  2.4157    0.98     7109   145  0.2035 0.2652        
   3     5  2.4157 -  2.2426    0.98     7199   147  0.1970 0.2697        
   3     6  2.2426 -  2.1104    0.99     7147   146  0.1967 0.2610        
   3     7  2.1104 -  2.0047    0.99     7144   146  0.2028 0.2737        
   3     8  2.0047 -  1.9174    0.98     7182   146  0.2152 0.2867        
   3     9  1.9174 -  1.8436    0.97     6997   143  0.2290 0.3067        
   3    10  1.8436 -  1.7800    0.95     6949   142  0.2452 0.2928        
   3                                                                      
   3  BULK SOLVENT MODELLING.                                             
   3   METHOD USED        : FLAT BULK SOLVENT MODEL                       
   3   SOLVENT RADIUS     : 1.11                                          
   3   SHRINKAGE RADIUS   : 0.90                                          
   3   K_SOL              : 0.36                                          
   3   B_SOL              : 45.22                                         
   3                                                                      
   3  ERROR ESTIMATES.                                                    
   3   COORDINATE ERROR (MAXIMUM-LIKELIHOOD BASED)     : 0.210            
   3   PHASE ERROR (DEGREES, MAXIMUM-LIKELIHOOD BASED) : NULL             
   3                                                                      
   3  B VALUES.                                                           
   3   FROM WILSON PLOT           (A**2) : 19.30                          
   3   MEAN B VALUE      (OVERALL, A**2) : 23.12                          
   3   OVERALL ANISOTROPIC B VALUE.                                       
   3    B11 (A**2) : 1.26890                                              
   3    B22 (A**2) : -7.57740                                             
   3    B33 (A**2) : 6.30850                                              
   3    B12 (A**2) : -0.00000                                             
   3    B13 (A**2) : 4.33300                                              
   3    B23 (A**2) : -0.00000                                             
   3                                                                      
   3  TWINNING INFORMATION.                                               
   3   FRACTION: NULL                                                     
   3   OPERATOR: NULL                                                     
   3                                                                      
   3  DEVIATIONS FROM IDEAL VALUES.                                       
   3                 RMSD          COUNT                                  
   3   BOND      :  0.011           5652                                  
   3   ANGLE     :  1.355           7751                                  
   3   CHIRALITY :  0.087            852                                  
   3   PLANARITY :  0.007            995                                  
   3   DIHEDRAL  : 15.120           1956                                  
   3                                                                      
   3  TLS DETAILS                                                         
   3   NUMBER OF TLS GROUPS  : NULL                                       
   3                                                                      
   3  NCS DETAILS                                                         
   3   NUMBER OF NCS GROUPS : NULL                                        
   3                                                                      
   3  OTHER REFINEMENT REMARKS: NULL                                      
   4                                                                      
   4 3O87 COMPLIES WITH FORMAT V. 3.30, 13-JUL-11                         
 100                                                                      
 100 THIS ENTRY HAS BEEN PROCESSED BY RCSB ON 03-AUG-10.                  
 100 THE RCSB ID CODE IS RCSB060787.                                      
 200                                                                      
 200 EXPERIMENTAL DETAILS                                                 
 200  EXPERIMENT TYPE                : X-RAY DIFFRACTION                  
 200  DATE OF DATA COLLECTION        : 21-NOV-09                          
 200  TEMPERATURE           (KELVIN) : 100                                
 200  PH                             : 8.7                                
 200  NUMBER OF CRYSTALS USED        : 1                                  
 200                                                                      
 200  SYNCHROTRON              (Y/N) : Y                                  
 200  RADIATION SOURCE               : ALS                                
 200  BEAMLINE                       : 8.3.1                              
 200  X-RAY GENERATOR MODEL          : NULL                               
 200  MONOCHROMATIC OR LAUE    (M/L) : M                                  
 200  WAVELENGTH OR RANGE        (A) : 1.115872                           
 200  MONOCHROMATOR                  : DOUBLE CRYSTAL                     
 200  OPTICS                         : NULL                               
 200                                                                      
 200  DETECTOR TYPE                  : CCD                                
 200  DETECTOR MANUFACTURER          : ADSC QUANTUM 315R                  
 200  INTENSITY-INTEGRATION SOFTWARE : XDS                                
 200  DATA SCALING SOFTWARE          : XSCALE                             
 200                                                                      
 200  NUMBER OF UNIQUE REFLECTIONS   : 72664                              
 200  RESOLUTION RANGE HIGH      (A) : 1.780                              
 200  RESOLUTION RANGE LOW       (A) : 40.000                             
 200  REJECTION CRITERIA  (SIGMA(I)) : -3.000                             
 200                                                                      
 200 OVERALL.                                                             
 200  COMPLETENESS FOR RANGE     (%) : 97.5                               
 200  DATA REDUNDANCY                : 2.950                              
 200  R MERGE                    (I) : 0.05800                            
 200  R SYM                      (I) : NULL                               
 200  <I/SIGMA(I)> FOR THE DATA SET  : 12.5700                            
 200                                                                      
 200 IN THE HIGHEST RESOLUTION SHELL.                                     
 200  HIGHEST RESOLUTION SHELL, RANGE HIGH (A) : 1.78                     
 200  HIGHEST RESOLUTION SHELL, RANGE LOW  (A) : 1.88                     
 200  COMPLETENESS FOR SHELL     (%) : 95.7                               
 200  DATA REDUNDANCY IN SHELL       : NULL                               
 200  R MERGE FOR SHELL          (I) : 0.45500                            
 200  R SYM FOR SHELL            (I) : NULL                               
 200  <I/SIGMA(I)> FOR SHELL         : 2.700                              
 200                                                                      
 200 DIFFRACTION PROTOCOL: SINGLE WAVELENGTH                              
 200 METHOD USED TO DETERMINE THE STRUCTURE: MOLECULAR REPLACEMENT        
 200 SOFTWARE USED: PHENIX (PHENIX.REFINE: 1.6_289)                       
 200 STARTING MODEL: PDB ENTRY 1KE4                                       
 200                                                                      
 200 REMARK: NULL                                                         
 280                                                                      
 280 CRYSTAL                                                              
 280 SOLVENT CONTENT, VS   (%): 50.48                                     
 280 MATTHEWS COEFFICIENT, VM (ANGSTROMS**3/DA): 2.48                     
 280                                                                      
 280 CRYSTALLIZATION CONDITIONS: 1.7 M POTASSIUM PHOSPHATE, PH 8.7,       
 280  VAPOR DIFFUSION, HANGING DROP, TEMPERATURE 293K                     
 290                                                                      
 290 CRYSTALLOGRAPHIC SYMMETRY                                            
 290 SYMMETRY OPERATORS FOR SPACE GROUP: C 1 2 1                          
 290                                                                      
 290      SYMOP   SYMMETRY                                                
 290     NNNMMM   OPERATOR                                                
 290       1555   X,Y,Z                                                   
 290       2555   -X,Y,-Z                                                 
 290       3555   X+1/2,Y+1/2,Z                                           
 290       4555   -X+1/2,Y+1/2,-Z                                         
 290                                                                      
 290     WHERE NNN -> OPERATOR NUMBER                                     
 290           MMM -> TRANSLATION VECTOR                                  
 290                                                                      
 290 CRYSTALLOGRAPHIC SYMMETRY TRANSFORMATIONS                            
 290 THE FOLLOWING TRANSFORMATIONS OPERATE ON THE ATOM/HETATM             
 290 RECORDS IN THIS ENTRY TO PRODUCE CRYSTALLOGRAPHICALLY                
 290 RELATED MOLECULES.                                                   
 290   SMTRY1   1  1.000000  0.000000  0.000000        0.00000            
 290   SMTRY2   1  0.000000  1.000000  0.000000        0.00000            
 290   SMTRY3   1  0.000000  0.000000  1.000000        0.00000            
 290   SMTRY1   2 -1.000000  0.000000  0.000000        0.00000            
 290   SMTRY2   2  0.000000  1.000000  0.000000        0.00000            
 290   SMTRY3   2  0.000000  0.000000 -1.000000        0.00000            
 290   SMTRY1   3  1.000000  0.000000  0.000000       59.06500            
 290   SMTRY2   3  0.000000  1.000000  0.000000       38.09500            
 290   SMTRY3   3  0.000000  0.000000  1.000000        0.00000            
 290   SMTRY1   4 -1.000000  0.000000  0.000000       59.06500            
 290   SMTRY2   4  0.000000  1.000000  0.000000       38.09500            
 290   SMTRY3   4  0.000000  0.000000 -1.000000        0.00000            
 290                                                                      
 290 REMARK: NULL                                                         
 300                                                                      
 300 BIOMOLECULE: 1, 2                                                    
 300 SEE REMARK 350 FOR THE AUTHOR PROVIDED AND/OR PROGRAM                
 300 GENERATED ASSEMBLY INFORMATION FOR THE STRUCTURE IN                  
 300 THIS ENTRY. THE REMARK MAY ALSO PROVIDE INFORMATION ON               
 300 BURIED SURFACE AREA.                                                 
 350                                                                      
 350 COORDINATES FOR A COMPLETE MULTIMER REPRESENTING THE KNOWN           
 350 BIOLOGICALLY SIGNIFICANT OLIGOMERIZATION STATE OF THE                
 350 MOLECULE CAN BE GENERATED BY APPLYING BIOMT TRANSFORMATIONS          
 350 GIVEN BELOW.  BOTH NON-CRYSTALLOGRAPHIC AND                          
 350 CRYSTALLOGRAPHIC OPERATIONS ARE GIVEN.                               
 350                                                                      
 350 BIOMOLECULE: 1                                                       
 350 AUTHOR DETERMINED BIOLOGICAL UNIT: MONOMERIC                         
 350 SOFTWARE DETERMINED QUATERNARY STRUCTURE: MONOMERIC                  
 350 SOFTWARE USED: PISA                                                  
 350 APPLY THE FOLLOWING TO CHAINS: A                                     
 350   BIOMT1   1  1.000000  0.000000  0.000000        0.00000            
 350   BIOMT2   1  0.000000  1.000000  0.000000        0.00000            
 350   BIOMT3   1  0.000000  0.000000  1.000000        0.00000            
 350                                                                      
 350 BIOMOLECULE: 2                                                       
 350 AUTHOR DETERMINED BIOLOGICAL UNIT: MONOMERIC                         
 350 SOFTWARE DETERMINED QUATERNARY STRUCTURE: MONOMERIC                  
 350 SOFTWARE USED: PISA                                                  
 350 APPLY THE FOLLOWING TO CHAINS: B                                     
 350   BIOMT1   1  1.000000  0.000000  0.000000        0.00000            
 350   BIOMT2   1  0.000000  1.000000  0.000000        0.00000            
 350   BIOMT3   1  0.000000  0.000000  1.000000        0.00000            
 465                                                                      
 465 MISSING RESIDUES                                                     
 465 THE FOLLOWING RESIDUES WERE NOT LOCATED IN THE                       
 465 EXPERIMENT. (M=MODEL NUMBER; RES=RESIDUE NAME; C=CHAIN               
 465 IDENTIFIER; SSSEQ=SEQUENCE NUMBER; I=INSERTION CODE.)                
 465                                                                      
 465   M RES C SSSEQI                                                     
 465     ILE A   284                                                      
 465     ASN A   285                                                      
 465     GLY A   286                                                      
 465     SER A   287                                                      
 465     ASP A   288                                                      
 465     ASN A   289                                                      
 465     LYS A   290                                                      
 470                                                                      
 470 MISSING ATOM                                                         
 470 THE FOLLOWING RESIDUES HAVE MISSING ATOMS (M=MODEL NUMBER;           
 470 RES=RESIDUE NAME; C=CHAIN IDENTIFIER; SSEQ=SEQUENCE NUMBER;          
 470 I=INSERTION CODE):                                                   
 470   M RES CSSEQI  ATOMS                                                
 470     GLU A  21    CD   OE1  OE2                                       
 470     GLN A  22    CG   CD   OE1  NE2                                  
 470     LYS A  24    CG   CD   CE   NZ                                   
 470     LYS A  37    CG   CD   CE   NZ                                   
 470     LYS A  99    CG   CD   CE   NZ                                   
 470     LYS A 126    CG   CD   CE   NZ                                   
 470     LYS A 183    CD   CE   NZ                                        
 470     GLU A 205    CG   CD   OE1  OE2                                  
 470     LYS A 207    CG   CD   CE   NZ                                   
 470     LYS A 239    CG   CD   CE   NZ                                   
 470     ASP A 242    CG   OD1  OD2                                       
 470     ASN A 244    CG   OD1  ND2                                       
 470     LYS A 246    CG   CD   CE   NZ                                   
 470     GLN A 250    CG   CD   OE1  NE2                                  
 470     ASN A 279    CG   OD1  ND2                                       
 470     ILE A 291    CD1                                                 
 470     LYS A 299    CG   CD   CE   NZ                                   
 470     ARG A 309    NE   CZ   NH1  NH2                                  
 470     GLU A 333    OE1  OE2                                            
 470     GLN A 361    CG   CD   OE1  NE2                                  
 470     ARG B  14    CZ   NH1  NH2                                       
 470     LYS B  24    CE   NZ                                             
 470     LYS B  37    CG   CD   CE   NZ                                   
 470     LYS B  50    CG   CD   CE   NZ                                   
 470     GLN B  56    OE1  NE2                                            
 470     GLN B  57    CD   OE1  NE2                                       
 470     GLU B  95    CG   CD   OE1  OE2                                  
 470     LYS B 126    CG   CD   CE   NZ                                   
 470     GLU B 205    CD   OE1  OE2                                       
 470     LYS B 207    CG   CD   CE   NZ                                   
 470     LYS B 239    CE   NZ                                             
 470     LYS B 246    CG   CD   CE   NZ                                   
 470     LYS B 299    CG   CD   CE   NZ                                   
 470     GLU B 333    CG   CD   OE1  OE2                                  
 500                                                                      
 500 GEOMETRY AND STEREOCHEMISTRY                                         
 500 SUBTOPIC: TORSION ANGLES                                             
 500                                                                      
 500 TORSION ANGLES OUTSIDE THE EXPECTED RAMACHANDRAN REGIONS:            
 500 (M=MODEL NUMBER; RES=RESIDUE NAME; C=CHAIN IDENTIFIER;               
 500 SSEQ=SEQUENCE NUMBER; I=INSERTION CODE).                             
 500                                                                      
 500 STANDARD TABLE:                                                      
 500 FORMAT:(10X,I3,1X,A3,1X,A1,I4,A1,4X,F7.2,3X,F7.2)                    
 500                                                                      
 500 EXPECTED VALUES: GJ KLEYWEGT AND TA JONES (1996). PHI/PSI-           
 500 CHOLOGY: RAMACHANDRAN REVISITED. STRUCTURE 4, 1395 - 1400            
 500                                                                      
 500  M RES CSSEQI        PSI       PHI                                   
 500    LYS A 126      -73.49   -111.47                                   
 500    VAL A 178      -56.17   -123.08                                   
 500    TYR A 221       19.03   -155.24                                   
 500    ALA A 307      120.38    -36.45                                   
 500    ASN A 341       44.95   -102.12                                   
 500    LYS B 126      -60.69   -126.30                                   
 500    VAL B 178      -57.52   -127.03                                   
 500    TYR B 221       22.44   -160.32                                   
 500    ALA B 307      119.92    -39.01                                   
 500    THR B 319     -166.51   -124.76                                   
 500    ASN B 341       41.10    -98.50                                   
 500                                                                      
 500 REMARK: NULL                                                         
 800                                                                      
 800 SITE                                                                 
 800 SITE_IDENTIFIER: AC1                                                 
 800 EVIDENCE_CODE: SOFTWARE                                              
 800 SITE_DESCRIPTION: BINDING SITE FOR RESIDUE BSG A 1                   
 800                                                                      
 800 SITE_IDENTIFIER: AC2                                                 
 800 EVIDENCE_CODE: SOFTWARE                                              
 800 SITE_DESCRIPTION: BINDING SITE FOR RESIDUE PO4 A 3                   
 800                                                                      
 800 SITE_IDENTIFIER: AC3                                                 
 800 EVIDENCE_CODE: SOFTWARE                                              
 800 SITE_DESCRIPTION: BINDING SITE FOR RESIDUE BSG B 2                   
 900                                                                      
 900 RELATED ENTRIES                                                      
 900 RELATED ID: 3O86   RELATED DB: PDB                                   
 900 RELATED ID: 3O88   RELATED DB: PDB                                   

>  <DBREF>
 3O87 A    4   361  UNP    P00811   AMPC_ECOLI      20    377             
 3O87 B    4   361  UNP    P00811   AMPC_ECOLI      20    377             

>  <SEQRES>
   1 A  358  ALA PRO GLN GLN ILE ASN ASP ILE VAL HIS ARG THR ILE          
   2 A  358  THR PRO LEU ILE GLU GLN GLN LYS ILE PRO GLY MET ALA          
   3 A  358  VAL ALA VAL ILE TYR GLN GLY LYS PRO TYR TYR PHE THR          
   4 A  358  TRP GLY TYR ALA ASP ILE ALA LYS LYS GLN PRO VAL THR          
   5 A  358  GLN GLN THR LEU PHE GLU LEU GLY SER VAL SER LYS THR          
   6 A  358  PHE THR GLY VAL LEU GLY GLY ASP ALA ILE ALA ARG GLY          
   7 A  358  GLU ILE LYS LEU SER ASP PRO THR THR LYS TYR TRP PRO          
   8 A  358  GLU LEU THR ALA LYS GLN TRP ASN GLY ILE THR LEU LEU          
   9 A  358  HIS LEU ALA THR TYR THR ALA GLY GLY LEU PRO LEU GLN          
  10 A  358  VAL PRO ASP GLU VAL LYS SER SER SER ASP LEU LEU ARG          
  11 A  358  PHE TYR GLN ASN TRP GLN PRO ALA TRP ALA PRO GLY THR          
  12 A  358  GLN ARG LEU TYR ALA ASN SER SER ILE GLY LEU PHE GLY          
  13 A  358  ALA LEU ALA VAL LYS PRO SER GLY LEU SER PHE GLU GLN          
  14 A  358  ALA MET GLN THR ARG VAL PHE GLN PRO LEU LYS LEU ASN          
  15 A  358  HIS THR TRP ILE ASN VAL PRO PRO ALA GLU GLU LYS ASN          
  16 A  358  TYR ALA TRP GLY TYR ARG GLU GLY LYS ALA VAL HIS VAL          
  17 A  358  SER PRO GLY ALA LEU ASP ALA GLU ALA TYR GLY VAL LYS          
  18 A  358  SER THR ILE GLU ASP MET ALA ARG TRP VAL GLN SER ASN          
  19 A  358  LEU LYS PRO LEU ASP ILE ASN GLU LYS THR LEU GLN GLN          
  20 A  358  GLY ILE GLN LEU ALA GLN SER ARG TYR TRP GLN THR GLY          
  21 A  358  ASP MET TYR GLN GLY LEU GLY TRP GLU MET LEU ASP TRP          
  22 A  358  PRO VAL ASN PRO ASP SER ILE ILE ASN GLY SER ASP ASN          
  23 A  358  LYS ILE ALA LEU ALA ALA ARG PRO VAL LYS ALA ILE THR          
  24 A  358  PRO PRO THR PRO ALA VAL ARG ALA SER TRP VAL HIS LYS          
  25 A  358  THR GLY ALA THR GLY GLY PHE GLY SER TYR VAL ALA PHE          
  26 A  358  ILE PRO GLU LYS GLU LEU GLY ILE VAL MET LEU ALA ASN          
  27 A  358  LYS ASN TYR PRO ASN PRO ALA ARG VAL ASP ALA ALA TRP          
  28 A  358  GLN ILE LEU ASN ALA LEU GLN                                  
   1 B  358  ALA PRO GLN GLN ILE ASN ASP ILE VAL HIS ARG THR ILE          
   2 B  358  THR PRO LEU ILE GLU GLN GLN LYS ILE PRO GLY MET ALA          
   3 B  358  VAL ALA VAL ILE TYR GLN GLY LYS PRO TYR TYR PHE THR          
   4 B  358  TRP GLY TYR ALA ASP ILE ALA LYS LYS GLN PRO VAL THR          
   5 B  358  GLN GLN THR LEU PHE GLU LEU GLY SER VAL SER LYS THR          
   6 B  358  PHE THR GLY VAL LEU GLY GLY ASP ALA ILE ALA ARG GLY          
   7 B  358  GLU ILE LYS LEU SER ASP PRO THR THR LYS TYR TRP PRO          
   8 B  358  GLU LEU THR ALA LYS GLN TRP ASN GLY ILE THR LEU LEU          
   9 B  358  HIS LEU ALA THR TYR THR ALA GLY GLY LEU PRO LEU GLN          
  10 B  358  VAL PRO ASP GLU VAL LYS SER SER SER ASP LEU LEU ARG          
  11 B  358  PHE TYR GLN ASN TRP GLN PRO ALA TRP ALA PRO GLY THR          
  12 B  358  GLN ARG LEU TYR ALA ASN SER SER ILE GLY LEU PHE GLY          
  13 B  358  ALA LEU ALA VAL LYS PRO SER GLY LEU SER PHE GLU GLN          
  14 B  358  ALA MET GLN THR ARG VAL PHE GLN PRO LEU LYS LEU ASN          
  15 B  358  HIS THR TRP ILE ASN VAL PRO PRO ALA GLU GLU LYS ASN          
  16 B  358  TYR ALA TRP GLY TYR ARG GLU GLY LYS ALA VAL HIS VAL          
  17 B  358  SER PRO GLY ALA LEU ASP ALA GLU ALA TYR GLY VAL LYS          
  18 B  358  SER THR ILE GLU ASP MET ALA ARG TRP VAL GLN SER ASN          
  19 B  358  LEU LYS PRO LEU ASP ILE ASN GLU LYS THR LEU GLN GLN          
  20 B  358  GLY ILE GLN LEU ALA GLN SER ARG TYR TRP GLN THR GLY          
  21 B  358  ASP MET TYR GLN GLY LEU GLY TRP GLU MET LEU ASP TRP          
  22 B  358  PRO VAL ASN PRO ASP SER ILE ILE ASN GLY SER ASP ASN          
  23 B  358  LYS ILE ALA LEU ALA ALA ARG PRO VAL LYS ALA ILE THR          
  24 B  358  PRO PRO THR PRO ALA VAL ARG ALA SER TRP VAL HIS LYS          
  25 B  358  THR GLY ALA THR GLY GLY PHE GLY SER TYR VAL ALA PHE          
  26 B  358  ILE PRO GLU LYS GLU LEU GLY ILE VAL MET LEU ALA ASN          
  27 B  358  LYS ASN TYR PRO ASN PRO ALA ARG VAL ASP ALA ALA TRP          
  28 B  358  GLN ILE LEU ASN ALA LEU GLN                                  

>  <HET>
 BSG  A   1      18                                                       
 PO4  A   3       5                                                       
 BSG  B   2      18                                                       

>  <HETNAM>
     BSG 4-({[(DIHYDROXYBORANYL)METHYL]SULFAMOYL}METHYL)BENZOIC           
   2 BSG  ACID                                                            
     PO4 PHOSPHATE ION                                                    

>  <FORMUL>
   3  BSG    2(C9 H12 B N O6 S)                                           
   4  PO4    O4 P 3-                                                      
   6  HOH   *519(H2 O)                                                    

>  <HELIX>
   1   1 PRO A    5  LYS A   24  1                                  20    
   2   2 VAL A   65  ARG A   80  1                                  16    
   3   3 PRO A   88  TYR A   92  5                                   5    
   4   4 ALA A   98  ASN A  102  5                                   5    
   5   5 THR A  105  THR A  111  1                                   7    
   6   6 SER A  127  TRP A  138  1                                  12    
   7   7 ALA A  151  VAL A  163  1                                  13    
   8   8 SER A  169  VAL A  178  1                                  10    
   9   9 VAL A  178  LYS A  183  1                                   6    
  10  10 PRO A  192  TYR A  199  5                                   8    
  11  11 LEU A  216  GLY A  222  1                                   7    
  12  12 THR A  226  LYS A  239  1                                  14    
  13  13 PRO A  240  ILE A  243  5                                   4    
  14  14 GLU A  245  GLN A  256  1                                  12    
  15  15 PRO A  330  GLU A  333  5                                   4    
  16  16 PRO A  345  GLN A  361  1                                  17    
  17  17 PRO B    5  LYS B   24  1                                  20    
  18  18 VAL B   65  ARG B   80  1                                  16    
  19  19 PRO B   88  TYR B   92  5                                   5    
  20  20 ALA B   98  ASN B  102  5                                   5    
  21  21 THR B  105  THR B  111  1                                   7    
  22  22 SER B  127  TRP B  138  1                                  12    
  23  23 ALA B  151  VAL B  163  1                                  13    
  24  24 SER B  169  VAL B  178  1                                  10    
  25  25 PRO B  192  TYR B  199  5                                   8    
  26  26 LEU B  216  GLY B  222  1                                   7    
  27  27 THR B  226  LYS B  239  1                                  14    
  28  28 PRO B  240  ILE B  243  5                                   4    
  29  29 GLU B  245  GLN B  256  1                                  12    
  30  30 ASN B  279  SER B  287  1                                   9    
  31  31 ASP B  288  LEU B  293  1                                   6    
  32  32 PRO B  330  GLU B  333  5                                   4    
  33  33 PRO B  345  GLN B  361  1                                  17    

>  <SHEET>
   1   A10 GLN A  52  PRO A  53  0                                        
   2   A10 LYS A  37  ASP A  47 -1  N  ALA A  46   O  GLN A  52           
   3   A10 GLY A  27  TYR A  34 -1  N  MET A  28   O  TRP A  43           
   4   A10 LEU A 334  ALA A 340 -1  O  LEU A 339   N  ALA A  29           
   5   A10 GLY A 323  ILE A 329 -1  N  ILE A 329   O  LEU A 334           
   6   A10 SER A 311  ALA A 318 -1  N  GLY A 317   O  SER A 324           
   7   A10 GLU A 272  ASP A 275 -1  N  LEU A 274   O  TRP A 312           
   8   A10 MET A 265  GLN A 267 -1  N  TYR A 266   O  MET A 273           
   9   A10 ARG A 258  THR A 262 -1  N  TYR A 259   O  GLN A 267           
  10   A10 LYS A 299  THR A 305 -1  O  LYS A 299   N  GLN A 261           
   1   B 2 PHE A  60  GLU A  61  0                                        
   2   B 2 LYS A 224  SER A 225 -1  O  SER A 225   N  PHE A  60           
   1   C 2 GLN A 147  ARG A 148  0                                        
   2   C 2 ARG A 296  PRO A 297 -1  O  ARG A 296   N  ARG A 148           
   1   D 2 GLY A 202  ARG A 204  0                                        
   2   D 2 LYS A 207  VAL A 209 -1  O  VAL A 209   N  GLY A 202           
   1   E10 GLN B  52  PRO B  53  0                                        
   2   E10 LYS B  37  ASP B  47 -1  N  ALA B  46   O  GLN B  52           
   3   E10 GLY B  27  TYR B  34 -1  N  VAL B  30   O  PHE B  41           
   4   E10 LEU B 334  ALA B 340 -1  O  GLY B 335   N  ILE B  33           
   5   E10 GLY B 323  ILE B 329 -1  N  ALA B 327   O  ILE B 336           
   6   E10 SER B 311  ALA B 318 -1  N  GLY B 317   O  SER B 324           
   7   E10 GLU B 272  ASP B 275 -1  N  LEU B 274   O  TRP B 312           
   8   E10 MET B 265  GLN B 267 -1  N  TYR B 266   O  MET B 273           
   9   E10 ARG B 258  THR B 262 -1  N  THR B 262   O  MET B 265           
  10   E10 LYS B 299  THR B 305 -1  O  THR B 305   N  ARG B 258           
   1   F 2 PHE B  60  GLU B  61  0                                        
   2   F 2 LYS B 224  SER B 225 -1  O  SER B 225   N  PHE B  60           
   1   G 2 GLN B 147  ARG B 148  0                                        
   2   G 2 ARG B 296  PRO B 297 -1  O  ARG B 296   N  ARG B 148           
   1   H 2 GLY B 202  ARG B 204  0                                        
   2   H 2 LYS B 207  VAL B 209 -1  O  VAL B 209   N  GLY B 202           

>  <LINK>
       OG  SER A  64                 BORABSG A   1     1555   1555  1.51  
       OG  SER B  64                 BORABSG B   2     1555   1555  1.50  

>  <CISPEP>
   1 TRP A  276    PRO A  277          0        11.63                     
   2 THR A  302    PRO A  303          0         0.33                     
   3 TRP B  276    PRO B  277          0         4.41                     
   4 THR B  302    PRO B  303          0         1.86                     

>  <SITE>
   1 AC1 11 SER A  64  TYR A 150  ASN A 152  VAL A 211                    
   2 AC1 11 SER A 212  TYR A 221  ALA A 318  GLY A 320                    
   3 AC1 11 HOH A 575  HOH A 577  HOH A 579                               
   1 AC2  5 HIS A 186  HOH A 372  HOH A 581  HOH A 611                    
   2 AC2  5 LYS B 290                                                     
   1 AC3 11 SER B  64  GLN B 120  TYR B 150  ASN B 152                    
   2 AC3 11 VAL B 211  SER B 212  ALA B 318  GLY B 320                    
   3 AC3 11 HOH B 450  HOH B 578  HOH B 580                               

>  <ORIGX1>
      1.000000  0.000000  0.000000        0.00000                         

>  <ORIGX2>
      0.000000  1.000000  0.000000        0.00000                         

>  <ORIGX3>
      0.000000  0.000000  1.000000        0.00000                         

>  <SCALE1>
      0.008465  0.000000  0.004159        0.00000                         

>  <SCALE2>
      0.000000  0.013125  0.000000        0.00000                         

>  <SCALE3>
      0.000000  0.000000  0.011441        0.00000                         

>  <MASTER>
      307    0    3   33   32    0    8    6 5991    2   43   56          

$$$$
