start_structures/Ligand_Substrate/Ligand_Complex_Stripped/BSH_3O88.pdb
 OpenBabel08222315203D

 31 32  0  0  1  0  0  0  0  0999 V2000
   26.8170    2.2060   16.1260 N   0  0  0  0  0  0  0  0  0  0  0  0
   28.1560    2.7100   16.4530 C   0  0  2  0  0  0  0  0  0  0  0  0
   29.0420    1.7890   17.2910 C   0  0  0  0  0  0  0  0  0  0  0  0
   30.2240    2.0320   17.4110 O   0  0  0  0  0  0  0  0  0  0  0  0
   28.0840    4.0950   17.1180 C   0  0  0  0  0  0  0  0  0  0  0  0
   27.4840    5.0280   16.2240 O   0  0  0  0  0  0  0  0  0  0  0  0
   20.9500   10.9280   14.7930 O   0  0  0  0  0  0  0  0  0  0  0  0
   26.9750    5.4300   13.3830 O   0  0  0  0  0  0  0  0  0  0  0  0
   25.0350    3.7250   13.6890 O   0  0  0  0  0  0  0  0  0  0  0  0
   20.9500   10.5160   12.5980 O   0  0  0  0  0  0  0  0  0  0  0  0
   25.3710    4.8280   17.3760 O   0  0  0  0  0  0  0  0  0  0  0  0
   27.1040    6.5560   18.1360 O   0  0  0  0  0  0  0  0  0  0  0  0
   20.2720    5.5490   11.6010 C   0  0  0  0  0  0  0  0  0  0  0  0
   20.7990    6.3820   12.5840 C   0  0  0  0  0  0  0  0  0  0  0  0
   21.1510    4.8690   10.7590 C   0  0  0  0  0  0  0  0  0  0  0  0
   25.0250    9.7000   12.6570 C   0  0  0  0  0  0  0  0  0  0  0  0
   22.1780    6.5290   12.7170 C   0  0  0  0  0  0  0  0  0  0  0  0
   22.5300    5.0280   10.8850 C   0  0  0  0  0  0  0  0  0  0  0  0
   25.5520    9.0920   13.8050 C   0  0  0  0  0  0  0  0  0  0  0  0
   23.7070   10.1430   12.6730 C   0  0  0  0  0  0  0  0  0  0  0  0
   23.4660    9.3650   14.9530 C   0  0  0  0  0  0  0  0  0  0  0  0
   25.4340    8.2140   16.1280 C   0  0  0  0  0  0  0  0  0  0  0  0
   24.5310    6.0380   12.0350 C   0  0  0  0  0  0  0  0  0  0  0  0
   25.0220    6.0370   15.0310 N   0  0  0  0  0  0  0  0  0  0  0  0
   21.4980   10.5040   13.7270 C   0  0  0  0  0  0  0  0  0  0  0  0
   23.0680    5.8550   11.8650 C   0  0  0  0  0  0  0  0  0  0  0  0
   24.7990    8.9200   14.9650 C   0  0  0  0  0  0  0  0  0  0  0  0
   22.9240    9.9760   13.8140 C   0  0  0  0  0  0  0  0  0  0  0  0
   25.9790    6.8080   15.7950 C   0  0  2  0  0  0  0  0  0  0  0  0
   25.2680    5.4010   13.5770 S   0  0  0  0  0  0  0  0  0  0  0  0
   26.4160    5.8540   16.9830 B   0  0  0  0  0  0  0  0  0  0  0  0
  2  1  1  1  0  0  0
  2  5  1  0  0  0  0
  2  3  1  0  0  0  0
  3  4  2  0  0  0  0
  6 31  1  0  0  0  0
  6  5  1  0  0  0  0
  7 25  2  0  0  0  0
  8 30  2  0  0  0  0
  9 30  2  0  0  0  0
 10 25  1  0  0  0  0
 11 31  1  0  0  0  0
 12 31  1  0  0  0  0
 13 14  2  0  0  0  0
 13 15  1  0  0  0  0
 14 17  1  0  0  0  0
 15 18  2  0  0  0  0
 16 19  2  0  0  0  0
 16 20  1  0  0  0  0
 17 26  2  0  0  0  0
 18 26  1  0  0  0  0
 19 27  1  0  0  0  0
 20 28  2  0  0  0  0
 21 27  2  0  0  0  0
 21 28  1  0  0  0  0
 22 27  1  0  0  0  0
 23 26  1  0  0  0  0
 23 30  1  0  0  0  0
 24 29  1  0  0  0  0
 24 30  1  0  0  0  0
 25 28  1  0  0  0  0
 29 22  1  1  0  0  0
 29 31  1  0  0  0  0
M  END
>  <HEADER>
    HYDROLASE                               02-AUG-10   3O88              

>  <TITLE>
    CRYSTAL STRUCTURE OF AMPC BETA-LACTAMASE IN COMPLEX WITH A SULFONAMIDE
   2 BORONIC ACID INHIBITOR                                               

>  <COMPND>
    MOL_ID: 1;                                                            
   2 MOLECULE: BETA-LACTAMASE;                                            
   3 CHAIN: A, B;                                                         
   4 FRAGMENT: BETA-LACTAMASE;                                            
   5 SYNONYM: CEPHALOSPORINASE;                                           
   6 EC: 3.5.2.6;                                                         
   7 ENGINEERED: YES                                                      

>  <SOURCE>
    MOL_ID: 1;                                                            
   2 ORGANISM_SCIENTIFIC: ESCHERICHIA COLI;                               
   3 ORGANISM_TAXID: 83333;                                               
   4 STRAIN: K12;                                                         
   5 GENE: AMPA, AMPC, B4150, JW4111;                                     
   6 EXPRESSION_SYSTEM: ESCHERICHIA COLI;                                 
   7 EXPRESSION_SYSTEM_TAXID: 562;                                        
   8 EXPRESSION_SYSTEM_STRAIN: JM109;                                     
   9 EXPRESSION_SYSTEM_VECTOR_TYPE: PLASMID;                              
  10 EXPRESSION_SYSTEM_PLASMID: POGO295                                   

>  <KEYWDS>
    CONTAINS ALPHA HELICES AND A BETA SANDWICH / BETA-LACTAMASE-LIKE FOLD 
   2 / AMPC BETA-LACTAMASE, CLASS C, HYDROLASE, CEPHALOSPORINASE          

>  <EXPDTA>
    X-RAY DIFFRACTION                                                     

>  <AUTHOR>
    O.EIDAM,C.ROMAGNOLI,J.KARPIAK,B.K.SHOICHET                            

>  <REVDAT>
   2   19-JUN-13 3O88    1       JRNL   VERSN                             
   1   03-NOV-10 3O88    0                                                

>  <JRNL>
      AUTH   O.EIDAM,C.ROMAGNOLI,E.CASELLI,K.BABAOGLU,D.T.POHLHAUS,       
      AUTH 2 J.KARPIAK,R.BONNET,B.K.SHOICHET,F.PRATI                      
      TITL   DESIGN, SYNTHESIS, CRYSTAL STRUCTURES, AND ANTIMICROBIAL     
      TITL 2 ACTIVITY OF SULFONAMIDE BORONIC ACIDS AS BETA-LACTAMASE      
      TITL 3 INHIBITORS                                                   
      REF    J.MED.CHEM.                   V.  53  7852 2010              
      REFN                   ISSN 0022-2623                               
      PMID   20945905                                                     
      DOI    10.1021/JM101015Z                                            

>  <REMARK>
   2                                                                      
   2 RESOLUTION.    1.64 ANGSTROMS.                                       
   3                                                                      
   3 REFINEMENT.                                                          
   3   PROGRAM     : PHENIX (PHENIX.REFINE: 1.6_289)                      
   3   AUTHORS     : PAUL ADAMS,PAVEL AFONINE,VICENT CHEN,IAN             
   3               : DAVIS,KRESHNA GOPAL,RALF GROSSE-                     
   3               : KUNSTLEVE,LI-WEI HUNG,ROBERT IMMORMINO,              
   3               : TOM IOERGER,AIRLIE MCCOY,ERIK MCKEE,NIGEL            
   3               : MORIARTY,REETAL PAI,RANDY READ,JANE                  
   3               : RICHARDSON,DAVID RICHARDSON,TOD ROMO,JIM             
   3               : SACCHETTINI,NICHOLAS SAUTER,JACOB SMITH,             
   3               : LAURENT STORONI,TOM TERWILLIGER,PETER                
   3               : ZWART                                                
   3                                                                      
   3    REFINEMENT TARGET : ENGH & HUBER                                  
   3                                                                      
   3  DATA USED IN REFINEMENT.                                            
   3   RESOLUTION RANGE HIGH (ANGSTROMS) : 1.64                           
   3   RESOLUTION RANGE LOW  (ANGSTROMS) : 29.54                          
   3   MIN(FOBS/SIGMA_FOBS)              : 1.990                          
   3   COMPLETENESS FOR RANGE        (%) : 98.6                           
   3   NUMBER OF REFLECTIONS             : 95179                          
   3                                                                      
   3  FIT TO DATA USED IN REFINEMENT.                                     
   3   R VALUE     (WORKING + TEST SET) : 0.181                           
   3   R VALUE            (WORKING SET) : 0.181                           
   3   FREE R VALUE                     : 0.210                           
   3   FREE R VALUE TEST SET SIZE   (%) : 2.000                           
   3   FREE R VALUE TEST SET COUNT      : 1904                            
   3                                                                      
   3  FIT TO DATA USED IN REFINEMENT (IN BINS).                           
   3   BIN  RESOLUTION RANGE  COMPL.    NWORK NFREE   RWORK  RFREE        
   3     1 29.5436 -  3.9497    0.91     6281   129  0.1461 0.1507        
   3     2  3.9497 -  3.1362    0.98     6663   136  0.1474 0.1892        
   3     3  3.1362 -  2.7400    0.98     6674   136  0.1829 0.2234        
   3     4  2.7400 -  2.4897    0.99     6665   136  0.1940 0.2351        
   3     5  2.4897 -  2.3113    0.99     6727   137  0.1828 0.2359        
   3     6  2.3113 -  2.1751    0.99     6660   136  0.1820 0.1992        
   3     7  2.1751 -  2.0662    0.99     6705   137  0.1860 0.2159        
   3     8  2.0662 -  1.9762    1.00     6740   138  0.1909 0.2100        
   3     9  1.9762 -  1.9002    1.00     6688   136  0.2051 0.2290        
   3    10  1.9002 -  1.8346    0.99     6667   136  0.2256 0.2665        
   3    11  1.8346 -  1.7773    1.00     6736   138  0.2318 0.2741        
   3    12  1.7773 -  1.7265    1.00     6673   136  0.2406 0.2788        
   3    13  1.7265 -  1.6810    1.00     6679   136  0.2473 0.2454        
   3    14  1.6810 -  1.6400    0.99     6717   137  0.2605 0.2739        
   3                                                                      
   3  BULK SOLVENT MODELLING.                                             
   3   METHOD USED        : FLAT BULK SOLVENT MODEL                       
   3   SOLVENT RADIUS     : 1.11                                          
   3   SHRINKAGE RADIUS   : 0.90                                          
   3   K_SOL              : 0.38                                          
   3   B_SOL              : 48.78                                         
   3                                                                      
   3  ERROR ESTIMATES.                                                    
   3   COORDINATE ERROR (MAXIMUM-LIKELIHOOD BASED)     : 0.190            
   3   PHASE ERROR (DEGREES, MAXIMUM-LIKELIHOOD BASED) : NULL             
   3                                                                      
   3  B VALUES.                                                           
   3   FROM WILSON PLOT           (A**2) : 22.80                          
   3   MEAN B VALUE      (OVERALL, A**2) : 25.89                          
   3   OVERALL ANISOTROPIC B VALUE.                                       
   3    B11 (A**2) : -1.06240                                             
   3    B22 (A**2) : 2.82670                                              
   3    B33 (A**2) : -1.76430                                             
   3    B12 (A**2) : -0.00000                                             
   3    B13 (A**2) : 4.67070                                              
   3    B23 (A**2) : 0.00000                                              
   3                                                                      
   3  TWINNING INFORMATION.                                               
   3   FRACTION: NULL                                                     
   3   OPERATOR: NULL                                                     
   3                                                                      
   3  DEVIATIONS FROM IDEAL VALUES.                                       
   3                 RMSD          COUNT                                  
   3   BOND      :  0.011           5827                                  
   3   ANGLE     :  1.374           8000                                  
   3   CHIRALITY :  0.093            871                                  
   3   PLANARITY :  0.007           1034                                  
   3   DIHEDRAL  : 16.272           2088                                  
   3                                                                      
   3  TLS DETAILS                                                         
   3   NUMBER OF TLS GROUPS  : NULL                                       
   3                                                                      
   3  NCS DETAILS                                                         
   3   NUMBER OF NCS GROUPS : NULL                                        
   3                                                                      
   3  OTHER REFINEMENT REMARKS: NULL                                      
   4                                                                      
   4 3O88 COMPLIES WITH FORMAT V. 3.30, 13-JUL-11                         
 100                                                                      
 100 THIS ENTRY HAS BEEN PROCESSED BY RCSB ON 03-AUG-10.                  
 100 THE RCSB ID CODE IS RCSB060788.                                      
 200                                                                      
 200 EXPERIMENTAL DETAILS                                                 
 200  EXPERIMENT TYPE                : X-RAY DIFFRACTION                  
 200  DATE OF DATA COLLECTION        : 21-NOV-09                          
 200  TEMPERATURE           (KELVIN) : 100                                
 200  PH                             : 8.7                                
 200  NUMBER OF CRYSTALS USED        : 1                                  
 200                                                                      
 200  SYNCHROTRON              (Y/N) : Y                                  
 200  RADIATION SOURCE               : ALS                                
 200  BEAMLINE                       : 8.3.1                              
 200  X-RAY GENERATOR MODEL          : NULL                               
 200  MONOCHROMATIC OR LAUE    (M/L) : M                                  
 200  WAVELENGTH OR RANGE        (A) : 1.115872                           
 200  MONOCHROMATOR                  : DOUBLE CRYSTAL                     
 200  OPTICS                         : NULL                               
 200                                                                      
 200  DETECTOR TYPE                  : CCD                                
 200  DETECTOR MANUFACTURER          : ADSC QUANTUM 315R                  
 200  INTENSITY-INTEGRATION SOFTWARE : XDS                                
 200  DATA SCALING SOFTWARE          : XSCALE                             
 200                                                                      
 200  NUMBER OF UNIQUE REFLECTIONS   : 95186                              
 200  RESOLUTION RANGE HIGH      (A) : 1.640                              
 200  RESOLUTION RANGE LOW       (A) : 30.000                             
 200  REJECTION CRITERIA  (SIGMA(I)) : -3.000                             
 200                                                                      
 200 OVERALL.                                                             
 200  COMPLETENESS FOR RANGE     (%) : 98.5                               
 200  DATA REDUNDANCY                : 3.050                              
 200  R MERGE                    (I) : 0.04100                            
 200  R SYM                      (I) : NULL                               
 200  <I/SIGMA(I)> FOR THE DATA SET  : 15.3000                            
 200                                                                      
 200 IN THE HIGHEST RESOLUTION SHELL.                                     
 200  HIGHEST RESOLUTION SHELL, RANGE HIGH (A) : 1.64                     
 200  HIGHEST RESOLUTION SHELL, RANGE LOW  (A) : 1.72                     
 200  COMPLETENESS FOR SHELL     (%) : 99.5                               
 200  DATA REDUNDANCY IN SHELL       : NULL                               
 200  R MERGE FOR SHELL          (I) : 0.44800                            
 200  R SYM FOR SHELL            (I) : NULL                               
 200  <I/SIGMA(I)> FOR SHELL         : 2.500                              
 200                                                                      
 200 DIFFRACTION PROTOCOL: SINGLE WAVELENGTH                              
 200 METHOD USED TO DETERMINE THE STRUCTURE: MOLECULAR REPLACEMENT        
 200 SOFTWARE USED: PHENIX (PHENIX.REFINE: 1.6_289)                       
 200 STARTING MODEL: PDB ENTRY 1KE4                                       
 200                                                                      
 200 REMARK: NULL                                                         
 280                                                                      
 280 CRYSTAL                                                              
 280 SOLVENT CONTENT, VS   (%): 51.34                                     
 280 MATTHEWS COEFFICIENT, VM (ANGSTROMS**3/DA): 2.53                     
 280                                                                      
 280 CRYSTALLIZATION CONDITIONS: 1.7 M POTASSIUM PHOSPHATE, PH 8.7,       
 280  VAPOR DIFFUSION, HANGING DROP, TEMPERATURE 293K                     
 290                                                                      
 290 CRYSTALLOGRAPHIC SYMMETRY                                            
 290 SYMMETRY OPERATORS FOR SPACE GROUP: C 1 2 1                          
 290                                                                      
 290      SYMOP   SYMMETRY                                                
 290     NNNMMM   OPERATOR                                                
 290       1555   X,Y,Z                                                   
 290       2555   -X,Y,-Z                                                 
 290       3555   X+1/2,Y+1/2,Z                                           
 290       4555   -X+1/2,Y+1/2,-Z                                         
 290                                                                      
 290     WHERE NNN -> OPERATOR NUMBER                                     
 290           MMM -> TRANSLATION VECTOR                                  
 290                                                                      
 290 CRYSTALLOGRAPHIC SYMMETRY TRANSFORMATIONS                            
 290 THE FOLLOWING TRANSFORMATIONS OPERATE ON THE ATOM/HETATM             
 290 RECORDS IN THIS ENTRY TO PRODUCE CRYSTALLOGRAPHICALLY                
 290 RELATED MOLECULES.                                                   
 290   SMTRY1   1  1.000000  0.000000  0.000000        0.00000            
 290   SMTRY2   1  0.000000  1.000000  0.000000        0.00000            
 290   SMTRY3   1  0.000000  0.000000  1.000000        0.00000            
 290   SMTRY1   2 -1.000000  0.000000  0.000000        0.00000            
 290   SMTRY2   2  0.000000  1.000000  0.000000        0.00000            
 290   SMTRY3   2  0.000000  0.000000 -1.000000        0.00000            
 290   SMTRY1   3  1.000000  0.000000  0.000000       59.01500            
 290   SMTRY2   3  0.000000  1.000000  0.000000       38.69500            
 290   SMTRY3   3  0.000000  0.000000  1.000000        0.00000            
 290   SMTRY1   4 -1.000000  0.000000  0.000000       59.01500            
 290   SMTRY2   4  0.000000  1.000000  0.000000       38.69500            
 290   SMTRY3   4  0.000000  0.000000 -1.000000        0.00000            
 290                                                                      
 290 REMARK: NULL                                                         
 300                                                                      
 300 BIOMOLECULE: 1, 2                                                    
 300 SEE REMARK 350 FOR THE AUTHOR PROVIDED AND/OR PROGRAM                
 300 GENERATED ASSEMBLY INFORMATION FOR THE STRUCTURE IN                  
 300 THIS ENTRY. THE REMARK MAY ALSO PROVIDE INFORMATION ON               
 300 BURIED SURFACE AREA.                                                 
 350                                                                      
 350 COORDINATES FOR A COMPLETE MULTIMER REPRESENTING THE KNOWN           
 350 BIOLOGICALLY SIGNIFICANT OLIGOMERIZATION STATE OF THE                
 350 MOLECULE CAN BE GENERATED BY APPLYING BIOMT TRANSFORMATIONS          
 350 GIVEN BELOW.  BOTH NON-CRYSTALLOGRAPHIC AND                          
 350 CRYSTALLOGRAPHIC OPERATIONS ARE GIVEN.                               
 350                                                                      
 350 BIOMOLECULE: 1                                                       
 350 AUTHOR DETERMINED BIOLOGICAL UNIT: MONOMERIC                         
 350 SOFTWARE DETERMINED QUATERNARY STRUCTURE: MONOMERIC                  
 350 SOFTWARE USED: PISA                                                  
 350 APPLY THE FOLLOWING TO CHAINS: A                                     
 350   BIOMT1   1  1.000000  0.000000  0.000000        0.00000            
 350   BIOMT2   1  0.000000  1.000000  0.000000        0.00000            
 350   BIOMT3   1  0.000000  0.000000  1.000000        0.00000            
 350                                                                      
 350 BIOMOLECULE: 2                                                       
 350 AUTHOR DETERMINED BIOLOGICAL UNIT: MONOMERIC                         
 350 SOFTWARE DETERMINED QUATERNARY STRUCTURE: MONOMERIC                  
 350 SOFTWARE USED: PISA                                                  
 350 APPLY THE FOLLOWING TO CHAINS: B                                     
 350   BIOMT1   1  1.000000  0.000000  0.000000        0.00000            
 350   BIOMT2   1  0.000000  1.000000  0.000000        0.00000            
 350   BIOMT3   1  0.000000  0.000000  1.000000        0.00000            
 470                                                                      
 470 MISSING ATOM                                                         
 470 THE FOLLOWING RESIDUES HAVE MISSING ATOMS (M=MODEL NUMBER;           
 470 RES=RESIDUE NAME; C=CHAIN IDENTIFIER; SSEQ=SEQUENCE NUMBER;          
 470 I=INSERTION CODE):                                                   
 470   M RES CSSEQI  ATOMS                                                
 470     GLN A  22    CG   CD   OE1  NE2                                  
 470     LYS A  24    CE   NZ                                             
 470     LYS A  37    CG   CD   CE   NZ                                   
 470     LYS A  99    CG   CD   CE   NZ                                   
 470     GLU A 205    CG   CD   OE1  OE2                                  
 470     LYS A 207    CE   NZ                                             
 470     LYS A 239    CE   NZ                                             
 470     ASP A 242    CG   OD1  OD2                                       
 470     ASN A 244    CG   OD1  ND2                                       
 470     LYS A 246    CE   NZ                                             
 470     LYS A 290    CG   CD   CE   NZ                                   
 470     LYS A 299    CG   CD   CE   NZ                                   
 470     GLN B   7    CG   CD   OE1  NE2                                  
 470     LYS B  24    CE   NZ                                             
 470     LYS B  37    CG   CD   CE   NZ                                   
 470     LYS B  50    CE   NZ                                             
 470     LYS B  51    CD   CE   NZ                                        
 470     GLN B  52    CD   OE1  NE2                                       
 470     GLN B  57    CD   OE1  NE2                                       
 470     GLN B 120    CD   OE1  NE2                                       
 470     LYS B 126    CG   CD   CE   NZ                                   
 470     GLU B 205    CG   CD   OE1  OE2                                  
 470     LYS B 207    CG   CD   CE   NZ                                   
 470     LYS B 246    CG   CD   CE   NZ                                   
 470     LYS B 299    CG   CD   CE   NZ                                   
 470     GLU B 333    CD   OE1  OE2                                       
 500                                                                      
 500 GEOMETRY AND STEREOCHEMISTRY                                         
 500 SUBTOPIC: CLOSE CONTACTS IN SAME ASYMMETRIC UNIT                     
 500                                                                      
 500 THE FOLLOWING ATOMS ARE IN CLOSE CONTACT.                            
 500                                                                      
 500  ATM1  RES C  SSEQI   ATM2  RES C  SSEQI           DISTANCE          
 500   OG   SER B    64     OAE  BSH B     2              2.17            
 500                                                                      
 500 REMARK: NULL                                                         
 500                                                                      
 500 GEOMETRY AND STEREOCHEMISTRY                                         
 500 SUBTOPIC: TORSION ANGLES                                             
 500                                                                      
 500 TORSION ANGLES OUTSIDE THE EXPECTED RAMACHANDRAN REGIONS:            
 500 (M=MODEL NUMBER; RES=RESIDUE NAME; C=CHAIN IDENTIFIER;               
 500 SSEQ=SEQUENCE NUMBER; I=INSERTION CODE).                             
 500                                                                      
 500 STANDARD TABLE:                                                      
 500 FORMAT:(10X,I3,1X,A3,1X,A1,I4,A1,4X,F7.2,3X,F7.2)                    
 500                                                                      
 500 EXPECTED VALUES: GJ KLEYWEGT AND TA JONES (1996). PHI/PSI-           
 500 CHOLOGY: RAMACHANDRAN REVISITED. STRUCTURE 4, 1395 - 1400            
 500                                                                      
 500  M RES CSSEQI        PSI       PHI                                   
 500    LYS A 126      -61.10   -132.58                                   
 500    SER A 154      -63.90    -90.92                                   
 500    VAL A 178      -57.56   -124.45                                   
 500    TYR A 221       38.32   -156.12                                   
 500    ALA A 307      116.36    -39.23                                   
 500    THR A 319     -168.91   -117.17                                   
 500    ASN A 341       45.22    -95.46                                   
 500    LYS B 126      -68.94   -127.53                                   
 500    VAL B 178      -58.11   -120.36                                   
 500    TYR B 221       33.62   -163.57                                   
 500    THR B 319     -165.80   -119.10                                   
 500    ASN B 341       42.24    -94.26                                   
 500                                                                      
 500 REMARK: NULL                                                         
 800                                                                      
 800 SITE                                                                 
 800 SITE_IDENTIFIER: AC1                                                 
 800 EVIDENCE_CODE: SOFTWARE                                              
 800 SITE_DESCRIPTION: BINDING SITE FOR RESIDUE BSH A 1                   
 800                                                                      
 800 SITE_IDENTIFIER: AC2                                                 
 800 EVIDENCE_CODE: SOFTWARE                                              
 800 SITE_DESCRIPTION: BINDING SITE FOR RESIDUE PO4 A 3                   
 800                                                                      
 800 SITE_IDENTIFIER: AC3                                                 
 800 EVIDENCE_CODE: SOFTWARE                                              
 800 SITE_DESCRIPTION: BINDING SITE FOR RESIDUE BSH B 2                   
 900                                                                      
 900 RELATED ENTRIES                                                      
 900 RELATED ID: 3O86   RELATED DB: PDB                                   
 900 RELATED ID: 3O87   RELATED DB: PDB                                   

>  <DBREF>
 3O88 A    4   361  UNP    P00811   AMPC_ECOLI      20    377             
 3O88 B    4   361  UNP    P00811   AMPC_ECOLI      20    377             

>  <SEQRES>
   1 A  358  ALA PRO GLN GLN ILE ASN ASP ILE VAL HIS ARG THR ILE          
   2 A  358  THR PRO LEU ILE GLU GLN GLN LYS ILE PRO GLY MET ALA          
   3 A  358  VAL ALA VAL ILE TYR GLN GLY LYS PRO TYR TYR PHE THR          
   4 A  358  TRP GLY TYR ALA ASP ILE ALA LYS LYS GLN PRO VAL THR          
   5 A  358  GLN GLN THR LEU PHE GLU LEU GLY SER VAL SER LYS THR          
   6 A  358  PHE THR GLY VAL LEU GLY GLY ASP ALA ILE ALA ARG GLY          
   7 A  358  GLU ILE LYS LEU SER ASP PRO THR THR LYS TYR TRP PRO          
   8 A  358  GLU LEU THR ALA LYS GLN TRP ASN GLY ILE THR LEU LEU          
   9 A  358  HIS LEU ALA THR TYR THR ALA GLY GLY LEU PRO LEU GLN          
  10 A  358  VAL PRO ASP GLU VAL LYS SER SER SER ASP LEU LEU ARG          
  11 A  358  PHE TYR GLN ASN TRP GLN PRO ALA TRP ALA PRO GLY THR          
  12 A  358  GLN ARG LEU TYR ALA ASN SER SER ILE GLY LEU PHE GLY          
  13 A  358  ALA LEU ALA VAL LYS PRO SER GLY LEU SER PHE GLU GLN          
  14 A  358  ALA MET GLN THR ARG VAL PHE GLN PRO LEU LYS LEU ASN          
  15 A  358  HIS THR TRP ILE ASN VAL PRO PRO ALA GLU GLU LYS ASN          
  16 A  358  TYR ALA TRP GLY TYR ARG GLU GLY LYS ALA VAL HIS VAL          
  17 A  358  SER PRO GLY ALA LEU ASP ALA GLU ALA TYR GLY VAL LYS          
  18 A  358  SER THR ILE GLU ASP MET ALA ARG TRP VAL GLN SER ASN          
  19 A  358  LEU LYS PRO LEU ASP ILE ASN GLU LYS THR LEU GLN GLN          
  20 A  358  GLY ILE GLN LEU ALA GLN SER ARG TYR TRP GLN THR GLY          
  21 A  358  ASP MET TYR GLN GLY LEU GLY TRP GLU MET LEU ASP TRP          
  22 A  358  PRO VAL ASN PRO ASP SER ILE ILE ASN GLY SER ASP ASN          
  23 A  358  LYS ILE ALA LEU ALA ALA ARG PRO VAL LYS ALA ILE THR          
  24 A  358  PRO PRO THR PRO ALA VAL ARG ALA SER TRP VAL HIS LYS          
  25 A  358  THR GLY ALA THR GLY GLY PHE GLY SER TYR VAL ALA PHE          
  26 A  358  ILE PRO GLU LYS GLU LEU GLY ILE VAL MET LEU ALA ASN          
  27 A  358  LYS ASN TYR PRO ASN PRO ALA ARG VAL ASP ALA ALA TRP          
  28 A  358  GLN ILE LEU ASN ALA LEU GLN                                  
   1 B  358  ALA PRO GLN GLN ILE ASN ASP ILE VAL HIS ARG THR ILE          
   2 B  358  THR PRO LEU ILE GLU GLN GLN LYS ILE PRO GLY MET ALA          
   3 B  358  VAL ALA VAL ILE TYR GLN GLY LYS PRO TYR TYR PHE THR          
   4 B  358  TRP GLY TYR ALA ASP ILE ALA LYS LYS GLN PRO VAL THR          
   5 B  358  GLN GLN THR LEU PHE GLU LEU GLY SER VAL SER LYS THR          
   6 B  358  PHE THR GLY VAL LEU GLY GLY ASP ALA ILE ALA ARG GLY          
   7 B  358  GLU ILE LYS LEU SER ASP PRO THR THR LYS TYR TRP PRO          
   8 B  358  GLU LEU THR ALA LYS GLN TRP ASN GLY ILE THR LEU LEU          
   9 B  358  HIS LEU ALA THR TYR THR ALA GLY GLY LEU PRO LEU GLN          
  10 B  358  VAL PRO ASP GLU VAL LYS SER SER SER ASP LEU LEU ARG          
  11 B  358  PHE TYR GLN ASN TRP GLN PRO ALA TRP ALA PRO GLY THR          
  12 B  358  GLN ARG LEU TYR ALA ASN SER SER ILE GLY LEU PHE GLY          
  13 B  358  ALA LEU ALA VAL LYS PRO SER GLY LEU SER PHE GLU GLN          
  14 B  358  ALA MET GLN THR ARG VAL PHE GLN PRO LEU LYS LEU ASN          
  15 B  358  HIS THR TRP ILE ASN VAL PRO PRO ALA GLU GLU LYS ASN          
  16 B  358  TYR ALA TRP GLY TYR ARG GLU GLY LYS ALA VAL HIS VAL          
  17 B  358  SER PRO GLY ALA LEU ASP ALA GLU ALA TYR GLY VAL LYS          
  18 B  358  SER THR ILE GLU ASP MET ALA ARG TRP VAL GLN SER ASN          
  19 B  358  LEU LYS PRO LEU ASP ILE ASN GLU LYS THR LEU GLN GLN          
  20 B  358  GLY ILE GLN LEU ALA GLN SER ARG TYR TRP GLN THR GLY          
  21 B  358  ASP MET TYR GLN GLY LEU GLY TRP GLU MET LEU ASP TRP          
  22 B  358  PRO VAL ASN PRO ASP SER ILE ILE ASN GLY SER ASP ASN          
  23 B  358  LYS ILE ALA LEU ALA ALA ARG PRO VAL LYS ALA ILE THR          
  24 B  358  PRO PRO THR PRO ALA VAL ARG ALA SER TRP VAL HIS LYS          
  25 B  358  THR GLY ALA THR GLY GLY PHE GLY SER TYR VAL ALA PHE          
  26 B  358  ILE PRO GLU LYS GLU LEU GLY ILE VAL MET LEU ALA ASN          
  27 B  358  LYS ASN TYR PRO ASN PRO ALA ARG VAL ASP ALA ALA TRP          
  28 B  358  GLN ILE LEU ASN ALA LEU GLN                                  

>  <HET>
 BSH  A   1      25                                                       
 PO4  A   3       5                                                       
 BSH  B   2      25                                                       

>  <HETNAM>
     BSH 3-[(2R)-2-[(BENZYLSULFONYL)AMINO]-2-(DIHYDROXYBORANYL)           
   2 BSH  ETHYL]BENZOIC ACID                                              
     PO4 PHOSPHATE ION                                                    

>  <FORMUL>
   3  BSH    2(C16 H18 B N O6 S)                                          
   4  PO4    O4 P 3-                                                      
   6  HOH   *744(H2 O)                                                    

>  <HELIX>
   1   1 PRO A    5  LYS A   24  1                                  20    
   2   2 VAL A   65  ARG A   80  1                                  16    
   3   3 PRO A   88  TRP A   93  1                                   6    
   4   4 ALA A   98  ASN A  102  5                                   5    
   5   5 THR A  105  THR A  111  1                                   7    
   6   6 SER A  127  TRP A  138  1                                  12    
   7   7 ALA A  151  VAL A  163  1                                  13    
   8   8 SER A  169  VAL A  178  1                                  10    
   9   9 PRO A  192  TYR A  199  5                                   8    
  10  10 LEU A  216  GLY A  222  1                                   7    
  11  11 THR A  226  LYS A  239  1                                  14    
  12  12 PRO A  240  ILE A  243  5                                   4    
  13  13 GLU A  245  GLN A  256  1                                  12    
  14  14 ASN A  279  ASP A  288  1                                  10    
  15  15 ASP A  288  LEU A  293  1                                   6    
  16  16 PRO A  330  GLU A  333  5                                   4    
  17  17 PRO A  345  GLN A  361  1                                  17    
  18  18 PRO B    5  LYS B   24  1                                  20    
  19  19 VAL B   65  ARG B   80  1                                  16    
  20  20 PRO B   88  TYR B   92  5                                   5    
  21  21 ALA B   98  ASN B  102  5                                   5    
  22  22 THR B  105  THR B  111  1                                   7    
  23  23 SER B  127  TRP B  138  1                                  12    
  24  24 ALA B  151  VAL B  163  1                                  13    
  25  25 SER B  169  VAL B  178  1                                  10    
  26  26 PRO B  192  TYR B  199  5                                   8    
  27  27 LEU B  216  GLY B  222  1                                   7    
  28  28 THR B  226  LYS B  239  1                                  14    
  29  29 PRO B  240  ILE B  243  5                                   4    
  30  30 GLU B  245  GLN B  256  1                                  12    
  31  31 ASN B  279  SER B  287  1                                   9    
  32  32 ASP B  288  LEU B  293  1                                   6    
  33  33 PRO B  330  GLU B  333  5                                   4    
  34  34 PRO B  345  GLN B  361  1                                  17    

>  <SHEET>
   1   A10 GLN A  52  PRO A  53  0                                        
   2   A10 LYS A  37  ASP A  47 -1  N  ALA A  46   O  GLN A  52           
   3   A10 GLY A  27  TYR A  34 -1  N  VAL A  30   O  PHE A  41           
   4   A10 LEU A 334  ALA A 340 -1  O  LEU A 339   N  ALA A  29           
   5   A10 GLY A 323  ILE A 329 -1  N  ILE A 329   O  LEU A 334           
   6   A10 SER A 311  ALA A 318 -1  N  GLY A 317   O  SER A 324           
   7   A10 GLU A 272  ASP A 275 -1  N  GLU A 272   O  HIS A 314           
   8   A10 MET A 265  GLN A 267 -1  N  TYR A 266   O  MET A 273           
   9   A10 ARG A 258  THR A 262 -1  N  TYR A 259   O  GLN A 267           
  10   A10 LYS A 299  THR A 305 -1  O  THR A 305   N  ARG A 258           
   1   B 3 PHE A  60  GLU A  61  0                                        
   2   B 3 LYS A 224  SER A 225 -1  O  SER A 225   N  PHE A  60           
   3   B 3 THR A 187  TRP A 188 -1  N  TRP A 188   O  LYS A 224           
   1   C 2 GLN A 147  ARG A 148  0                                        
   2   C 2 ARG A 296  PRO A 297 -1  O  ARG A 296   N  ARG A 148           
   1   D 2 GLY A 202  ARG A 204  0                                        
   2   D 2 LYS A 207  VAL A 209 -1  O  LYS A 207   N  ARG A 204           
   1   E10 GLN B  52  PRO B  53  0                                        
   2   E10 LYS B  37  ASP B  47 -1  N  ASP B  47   O  GLN B  52           
   3   E10 GLY B  27  TYR B  34 -1  N  VAL B  30   O  PHE B  41           
   4   E10 LEU B 334  ALA B 340 -1  O  LEU B 339   N  ALA B  29           
   5   E10 GLY B 323  ILE B 329 -1  N  ILE B 329   O  LEU B 334           
   6   E10 SER B 311  ALA B 318 -1  N  GLY B 317   O  SER B 324           
   7   E10 GLU B 272  ASP B 275 -1  N  GLU B 272   O  HIS B 314           
   8   E10 MET B 265  GLN B 267 -1  N  TYR B 266   O  MET B 273           
   9   E10 ARG B 258  THR B 262 -1  N  THR B 262   O  MET B 265           
  10   E10 LYS B 299  THR B 305 -1  O  THR B 305   N  ARG B 258           
   1   F 2 PHE B  60  GLU B  61  0                                        
   2   F 2 LYS B 224  SER B 225 -1  O  SER B 225   N  PHE B  60           
   1   G 2 GLN B 147  ARG B 148  0                                        
   2   G 2 ARG B 296  PRO B 297 -1  O  ARG B 296   N  ARG B 148           
   1   H 2 GLY B 202  ARG B 204  0                                        
   2   H 2 LYS B 207  VAL B 209 -1  O  VAL B 209   N  GLY B 202           

>  <LINK>
       OG  SER A  64                 BORABSH A   1     1555   1555  1.55  
       OG  SER B  64                 BORABSH B   2     1555   1555  1.54  

>  <CISPEP>
   1 TRP A  276    PRO A  277          0         6.67                     
   2 THR A  302    PRO A  303          0        -3.57                     
   3 TRP B  276    PRO B  277          0         3.02                     
   4 THR B  302    PRO B  303          0         0.24                     

>  <SITE>
   1 AC1 13 GLY A  63  SER A  64  LYS A  67  LEU A 119                    
   2 AC1 13 GLN A 120  TYR A 150  ASN A 152  ALA A 220                    
   3 AC1 13 TYR A 221  GLY A 317  ALA A 318  GLY A 320                    
   4 AC1 13 HOH A 420                                                     
   1 AC2 10 ARG A 133  HIS A 186  HOH A 434  HOH A 531                    
   2 AC2 10 HOH A 534  HOH A 822  HOH A 838  LYS B 290                    
   3 AC2 10 HOH B 456  HOH B 493                                          
   1 AC3 12 GLY B  63  SER B  64  LYS B  67  LEU B 119                    
   2 AC3 12 GLN B 120  TYR B 150  ASN B 152  TYR B 221                    
   3 AC3 12 GLY B 317  ALA B 318  GLY B 320  HOH B 614                    

>  <ORIGX1>
      1.000000  0.000000  0.000000        0.00000                         

>  <ORIGX2>
      0.000000  1.000000  0.000000        0.00000                         

>  <ORIGX3>
      0.000000  0.000000  1.000000        0.00000                         

>  <SCALE1>
      0.008472  0.000000  0.004113        0.00000                         

>  <SCALE2>
      0.000000  0.012922  0.000000        0.00000                         

>  <SCALE3>
      0.000000  0.000000  0.011412        0.00000                         

>  <MASTER>
      300    0    3   34   33    0   10    6 6314    2   57   56          

$$$$
