start_structures/Ligand_Substrate/Ligand_Complex_Stripped/BX6_6JN3.pdb
 OpenBabel08222315203D

 24 23  0  0  1  0  0  0  0  0999 V2000
  125.8910  -56.5680  124.9450 N   0  0  0  0  0  0  0  0  0  0  0  0
  127.1060  -56.4710  124.1360 C   0  0  2  0  0  0  0  0  0  0  0  0
  127.2830  -55.1510  123.4300 C   0  0  0  0  0  0  0  0  0  0  0  0
  128.3210  -54.9860  122.7740 O   0  0  0  0  0  0  0  0  0  0  0  0
  127.1620  -57.4790  123.0210 C   0  0  0  0  0  0  0  0  0  0  0  0
  127.2850  -58.8080  123.4850 O   0  0  0  0  0  0  0  0  0  0  0  0
  124.3670  -62.6810  121.8300 C   0  0  0  0  0  0  0  0  0  0  0  0
  125.6380  -62.9040  122.4320 C   0  0  0  0  0  0  0  0  0  0  0  0
  125.9720  -64.2500  122.5570 C   0  0  0  0  0  0  0  0  0  0  0  0
  125.1040  -65.2620  122.1190 C   0  0  0  0  0  0  0  0  0  0  0  0
  123.8790  -64.9900  121.5460 C   0  0  0  0  0  0  0  0  0  0  0  0
  123.5030  -63.6790  121.4080 C   0  0  0  0  0  0  0  0  0  0  0  0
  126.6760  -61.8280  122.9560 C   0  0  0  0  0  0  0  0  0  0  0  0
  126.5790  -61.4000  124.4800 C   0  0  2  0  0  0  0  0  0  0  0  0
  125.4710  -62.1110  125.0760 N   0  0  0  0  0  0  0  0  0  0  0  0
  125.6880  -63.3180  125.8490 C   0  0  0  0  0  0  0  0  0  0  0  0
  126.8080  -63.7160  125.9830 O   0  0  0  0  0  0  0  0  0  0  0  0
  124.4370  -64.0250  126.4240 C   0  0  1  0  0  0  0  0  0  0  0  0
  124.0390  -65.0380  125.3510 C   0  0  0  0  0  0  0  0  0  0  0  0
  122.5600  -66.0320  125.7030 S   0  0  0  0  0  0  0  0  0  0  0  0
  124.7230  -64.6240  127.8180 C   0  0  0  0  0  0  0  0  0  0  0  0
  126.2810  -59.8760  124.8820 B   0  0  0  0  0  0  0  0  0  0  0  0
  126.8270  -59.3440  126.0470 O   0  0  0  0  0  0  0  0  0  0  0  0
  125.0660  -59.3900  124.4820 O   0  0  0  0  0  0  0  0  0  0  0  0
  2  1  1  6  0  0  0
  3  2  1  0  0  0  0
  4  3  2  0  0  0  0
  5  6  1  0  0  0  0
  5  2  1  0  0  0  0
  7  8  2  0  0  0  0
  7 12  1  0  0  0  0
  8  9  1  0  0  0  0
  8 13  1  0  0  0  0
  9 10  2  0  0  0  0
 10 11  1  0  0  0  0
 11 12  2  0  0  0  0
 14 13  1  6  0  0  0
 14 15  1  0  0  0  0
 14 22  1  0  0  0  0
 15 16  1  0  0  0  0
 16 17  2  0  0  0  0
 16 18  1  0  0  0  0
 18 19  1  0  0  0  0
 18 21  1  1  0  0  0
 19 20  1  0  0  0  0
 22 23  1  0  0  0  0
 22 24  1  0  0  0  0
M  END
>  <HEADER>
    HYDROLASE                               13-MAR-19   6JN3              

>  <TITLE>
    SERINE BETA-LACTAMASE KPC-2 IN COMPLEX WITH DUAL MBL/SBL INHIBITOR    
   2 MS05                                                                 

>  <COMPND>
    MOL_ID: 1;                                                            
   2 MOLECULE: SERINE BETA-LACTAMASE KPC-2;                               
   3 CHAIN: A, B, C, D;                                                   
   4 EC: 3.5.2.6;                                                         
   5 ENGINEERED: YES                                                      

>  <SOURCE>
    MOL_ID: 1;                                                            
   2 ORGANISM_SCIENTIFIC: KLEBSIELLA PNEUMONIAE;                          
   3 ORGANISM_TAXID: 573;                                                 
   4 GENE: KPC-2;                                                         
   5 EXPRESSION_SYSTEM: ESCHERICHIA COLI BL21(DE3);                       
   6 EXPRESSION_SYSTEM_TAXID: 469008                                      

>  <KEYWDS>
    BETA-LACTAMASE, SERINE-BETA-LACTAMASE KPC-2, KPC-2, CARBAPENEMASE,    
   2 HYDROLASE                                                            

>  <EXPDTA>
    X-RAY DIFFRACTION                                                     

>  <AUTHOR>
    G.-B.LI,S.LIU                                                         

>  <REVDAT>
   2   21-AUG-19 6JN3    1       JRNL                                     
   1   17-JUL-19 6JN3    0                                                

>  <JRNL>
      AUTH   Y.L.WANG,S.LIU,Z.J.YU,Y.LEI,M.Y.HUANG,Y.H.YAN,Q.MA,Y.ZHENG,  
      AUTH 2 H.DENG,Y.SUN,C.WU,Y.YU,Q.CHEN,Z.WANG,Y.WU,G.B.LI             
      TITL   STRUCTURE-BASED DEVELOPMENT OF                               
      TITL 2 (1-(3'-MERCAPTOPROPANAMIDO)METHYL)BORONIC ACID DERIVED       
      TITL 3 BROAD-SPECTRUM, DUAL-ACTION INHIBITORS OF METALLO- AND       
      TITL 4 SERINE-BETA-LACTAMASES.                                      
      REF    J.MED.CHEM.                   V.  62  7160 2019              
      REFN                   ISSN 0022-2623                               
      PMID   31269398                                                     
      DOI    10.1021/ACS.JMEDCHEM.9B00735                                 

>  <REMARK>
   2                                                                      
   2 RESOLUTION.    2.22 ANGSTROMS.                                       
   3                                                                      
   3 REFINEMENT.                                                          
   3   PROGRAM     : PHENIX 1.10.1_2155                                   
   3   AUTHORS     : PAUL ADAMS,PAVEL AFONINE,VINCENT CHEN,IAN            
   3               : DAVIS,KRESHNA GOPAL,RALF GROSSE-KUNSTLEVE,           
   3               : LI-WEI HUNG,ROBERT IMMORMINO,TOM IOERGER,            
   3               : AIRLIE MCCOY,ERIK MCKEE,NIGEL MORIARTY,              
   3               : REETAL PAI,RANDY READ,JANE RICHARDSON,               
   3               : DAVID RICHARDSON,TOD ROMO,JIM SACCHETTINI,           
   3               : NICHOLAS SAUTER,JACOB SMITH,LAURENT                  
   3               : STORONI,TOM TERWILLIGER,PETER ZWART                  
   3                                                                      
   3    REFINEMENT TARGET : NULL                                          
   3                                                                      
   3  DATA USED IN REFINEMENT.                                            
   3   RESOLUTION RANGE HIGH (ANGSTROMS) : 2.22                           
   3   RESOLUTION RANGE LOW  (ANGSTROMS) : 47.78                          
   3   MIN(FOBS/SIGMA_FOBS)              : 1.340                          
   3   COMPLETENESS FOR RANGE        (%) : 99.3                           
   3   NUMBER OF REFLECTIONS             : 143166                         
   3                                                                      
   3  FIT TO DATA USED IN REFINEMENT.                                     
   3   R VALUE     (WORKING + TEST SET) : 0.168                           
   3   R VALUE            (WORKING SET) : 0.167                           
   3   FREE R VALUE                     : 0.201                           
   3   FREE R VALUE TEST SET SIZE   (%) : 1.840                           
   3   FREE R VALUE TEST SET COUNT      : 2637                            
   3                                                                      
   3  FIT TO DATA USED IN REFINEMENT (IN BINS).                           
   3   BIN  RESOLUTION RANGE  COMPL.    NWORK NFREE   RWORK  RFREE        
   3     1 47.7912 -  5.9098    0.99     7395   136  0.1748 0.1684        
   3     2  5.9098 -  4.6921    1.00     7461   146  0.1562 0.1632        
   3     3  4.6921 -  4.0994    1.00     7458   140  0.1411 0.1746        
   3     4  4.0994 -  3.7247    1.00     7441   142  0.1520 0.1922        
   3     5  3.7247 -  3.4578    1.00     7407   140  0.1595 0.1836        
   3     6  3.4578 -  3.2540    1.00     7458   138  0.1705 0.2086        
   3     7  3.2540 -  3.0911    1.00     7462   146  0.1723 0.1934        
   3     8  3.0911 -  2.9565    1.00     7446   134  0.1793 0.2183        
   3     9  2.9565 -  2.8427    1.00     7426   140  0.1685 0.2041        
   3    10  2.8427 -  2.7446    1.00     7465   138  0.1606 0.2054        
   3    11  2.7446 -  2.6588    1.00     7511   144  0.1600 0.2399        
   3    12  2.6588 -  2.5828    1.00     7341   134  0.1591 0.1954        
   3    13  2.5828 -  2.5148    1.00     7438   136  0.1631 0.2005        
   3    14  2.5148 -  2.4535    1.00     7497   142  0.1743 0.2483        
   3    15  2.4535 -  2.3977    1.00     7372   144  0.1831 0.2708        
   3    16  2.3977 -  2.3467    1.00     7478   142  0.1884 0.2527        
   3    17  2.3467 -  2.2998    1.00     7403   139  0.1910 0.2293        
   3    18  2.2998 -  2.2564    0.96     7231   125  0.2030 0.2506        
   3    19  2.2564 -  2.2161    0.92     6839   131  0.2076 0.2327        
   3                                                                      
   3  BULK SOLVENT MODELLING.                                             
   3   METHOD USED        : NULL                                          
   3   SOLVENT RADIUS     : 1.11                                          
   3   SHRINKAGE RADIUS   : 0.90                                          
   3   K_SOL              : NULL                                          
   3   B_SOL              : NULL                                          
   3                                                                      
   3  ERROR ESTIMATES.                                                    
   3   COORDINATE ERROR (MAXIMUM-LIKELIHOOD BASED)     : 0.190            
   3   PHASE ERROR (DEGREES, MAXIMUM-LIKELIHOOD BASED) : 19.150           
   3                                                                      
   3  B VALUES.                                                           
   3   FROM WILSON PLOT           (A**2) : 21.02                          
   3   MEAN B VALUE      (OVERALL, A**2) : 25.17                          
   3   OVERALL ANISOTROPIC B VALUE.                                       
   3    B11 (A**2) : NULL                                                 
   3    B22 (A**2) : NULL                                                 
   3    B33 (A**2) : NULL                                                 
   3    B12 (A**2) : NULL                                                 
   3    B13 (A**2) : NULL                                                 
   3    B23 (A**2) : NULL                                                 
   3                                                                      
   3  TWINNING INFORMATION.                                               
   3   FRACTION: NULL                                                     
   3   OPERATOR: NULL                                                     
   3                                                                      
   3  DEVIATIONS FROM IDEAL VALUES.                                       
   3                 RMSD          COUNT                                  
   3   BOND      :  0.012           8158                                  
   3   ANGLE     :  1.241          11085                                  
   3   CHIRALITY :  0.061           1252                                  
   3   PLANARITY :  0.008           1447                                  
   3   DIHEDRAL  : 16.356           4810                                  
   3                                                                      
   3  TLS DETAILS                                                         
   3   NUMBER OF TLS GROUPS  : NULL                                       
   3                                                                      
   3  NCS DETAILS                                                         
   3   NUMBER OF NCS GROUPS : NULL                                        
   3                                                                      
   3  OTHER REFINEMENT REMARKS: NULL                                      
   4                                                                      
   4 6JN3 COMPLIES WITH FORMAT V. 3.30, 13-JUL-11                         
 100                                                                      
 100 THIS ENTRY HAS BEEN PROCESSED BY PDBJ ON 27-MAR-19.                  
 100 THE DEPOSITION ID IS D_1300011351.                                   
 200                                                                      
 200 EXPERIMENTAL DETAILS                                                 
 200  EXPERIMENT TYPE                : X-RAY DIFFRACTION                  
 200  DATE OF DATA COLLECTION        : 01-JUN-18                          
 200  TEMPERATURE           (KELVIN) : 195                                
 200  PH                             : 4.5                                
 200  NUMBER OF CRYSTALS USED        : 1                                  
 200                                                                      
 200  SYNCHROTRON              (Y/N) : Y                                  
 200  RADIATION SOURCE               : SSRF                               
 200  BEAMLINE                       : BL19U1                             
 200  X-RAY GENERATOR MODEL          : NULL                               
 200  MONOCHROMATIC OR LAUE    (M/L) : M                                  
 200  WAVELENGTH OR RANGE        (A) : 0.97918                            
 200  MONOCHROMATOR                  : NULL                               
 200  OPTICS                         : NULL                               
 200                                                                      
 200  DETECTOR TYPE                  : PIXEL                              
 200  DETECTOR MANUFACTURER          : DECTRIS PILATUS3 X CDTE 1M         
 200  INTENSITY-INTEGRATION SOFTWARE : HKL-2000                           
 200  DATA SCALING SOFTWARE          : SCALEPACK                          
 200                                                                      
 200  NUMBER OF UNIQUE REFLECTIONS   : 192362                             
 200  RESOLUTION RANGE HIGH      (A) : 1.780                              
 200  RESOLUTION RANGE LOW       (A) : 50.000                             
 200  REJECTION CRITERIA  (SIGMA(I)) : NULL                               
 200                                                                      
 200 OVERALL.                                                             
 200  COMPLETENESS FOR RANGE     (%) : 96.7                               
 200  DATA REDUNDANCY                : 17.40                              
 200  R MERGE                    (I) : 0.22500                            
 200  R SYM                      (I) : NULL                               
 200  <I/SIGMA(I)> FOR THE DATA SET  : 3.4000                             
 200                                                                      
 200 IN THE HIGHEST RESOLUTION SHELL.                                     
 200  HIGHEST RESOLUTION SHELL, RANGE HIGH (A) : 1.78                     
 200  HIGHEST RESOLUTION SHELL, RANGE LOW  (A) : 1.81                     
 200  COMPLETENESS FOR SHELL     (%) : 64.5                               
 200  DATA REDUNDANCY IN SHELL       : 5.80                               
 200  R MERGE FOR SHELL          (I) : 0.96800                            
 200  R SYM FOR SHELL            (I) : NULL                               
 200  <I/SIGMA(I)> FOR SHELL         : NULL                               
 200                                                                      
 200 DIFFRACTION PROTOCOL: SINGLE WAVELENGTH                              
 200 METHOD USED TO DETERMINE THE STRUCTURE: MOLECULAR REPLACEMENT        
 200 SOFTWARE USED: PHASER 2.6.0                                          
 200 STARTING MODEL: 5EEC                                                 
 200                                                                      
 200 REMARK: NULL                                                         
 280                                                                      
 280 CRYSTAL                                                              
 280 SOLVENT CONTENT, VS   (%): 63.10                                     
 280 MATTHEWS COEFFICIENT, VM (ANGSTROMS**3/DA): 3.33                     
 280                                                                      
 280 CRYSTALLIZATION CONDITIONS: 32-35% PEG 8000, 0.1M LITHIUM            
 280  SULPHATE, 0.05M SODIUM ACETATE (PH 4.5), VAPOR DIFFUSION,           
 280  HANGING DROP, TEMPERATURE 293K                                      
 290                                                                      
 290 CRYSTALLOGRAPHIC SYMMETRY                                            
 290 SYMMETRY OPERATORS FOR SPACE GROUP: P 3 2 1                          
 290                                                                      
 290      SYMOP   SYMMETRY                                                
 290     NNNMMM   OPERATOR                                                
 290       1555   X,Y,Z                                                   
 290       2555   -Y,X-Y,Z                                                
 290       3555   -X+Y,-X,Z                                               
 290       4555   Y,X,-Z                                                  
 290       5555   X-Y,-Y,-Z                                               
 290       6555   -X,-X+Y,-Z                                              
 290                                                                      
 290     WHERE NNN -> OPERATOR NUMBER                                     
 290           MMM -> TRANSLATION VECTOR                                  
 290                                                                      
 290 CRYSTALLOGRAPHIC SYMMETRY TRANSFORMATIONS                            
 290 THE FOLLOWING TRANSFORMATIONS OPERATE ON THE ATOM/HETATM             
 290 RECORDS IN THIS ENTRY TO PRODUCE CRYSTALLOGRAPHICALLY                
 290 RELATED MOLECULES.                                                   
 290   SMTRY1   1  1.000000  0.000000  0.000000        0.00000            
 290   SMTRY2   1  0.000000  1.000000  0.000000        0.00000            
 290   SMTRY3   1  0.000000  0.000000  1.000000        0.00000            
 290   SMTRY1   2 -0.500000 -0.866025  0.000000        0.00000            
 290   SMTRY2   2  0.866025 -0.500000  0.000000        0.00000            
 290   SMTRY3   2  0.000000  0.000000  1.000000        0.00000            
 290   SMTRY1   3 -0.500000  0.866025  0.000000        0.00000            
 290   SMTRY2   3 -0.866025 -0.500000  0.000000        0.00000            
 290   SMTRY3   3  0.000000  0.000000  1.000000        0.00000            
 290   SMTRY1   4 -0.500000  0.866025  0.000000        0.00000            
 290   SMTRY2   4  0.866025  0.500000  0.000000        0.00000            
 290   SMTRY3   4  0.000000  0.000000 -1.000000        0.00000            
 290   SMTRY1   5  1.000000  0.000000  0.000000        0.00000            
 290   SMTRY2   5  0.000000 -1.000000  0.000000        0.00000            
 290   SMTRY3   5  0.000000  0.000000 -1.000000        0.00000            
 290   SMTRY1   6 -0.500000 -0.866025  0.000000        0.00000            
 290   SMTRY2   6 -0.866025  0.500000  0.000000        0.00000            
 290   SMTRY3   6  0.000000  0.000000 -1.000000        0.00000            
 290                                                                      
 290 REMARK: NULL                                                         
 300                                                                      
 300 BIOMOLECULE: 1, 2, 3, 4                                              
 300 SEE REMARK 350 FOR THE AUTHOR PROVIDED AND/OR PROGRAM                
 300 GENERATED ASSEMBLY INFORMATION FOR THE STRUCTURE IN                  
 300 THIS ENTRY. THE REMARK MAY ALSO PROVIDE INFORMATION ON               
 300 BURIED SURFACE AREA.                                                 
 350                                                                      
 350 COORDINATES FOR A COMPLETE MULTIMER REPRESENTING THE KNOWN           
 350 BIOLOGICALLY SIGNIFICANT OLIGOMERIZATION STATE OF THE                
 350 MOLECULE CAN BE GENERATED BY APPLYING BIOMT TRANSFORMATIONS          
 350 GIVEN BELOW.  BOTH NON-CRYSTALLOGRAPHIC AND                          
 350 CRYSTALLOGRAPHIC OPERATIONS ARE GIVEN.                               
 350                                                                      
 350 BIOMOLECULE: 1                                                       
 350 AUTHOR DETERMINED BIOLOGICAL UNIT: MONOMERIC                         
 350 APPLY THE FOLLOWING TO CHAINS: A                                     
 350   BIOMT1   1  1.000000  0.000000  0.000000        0.00000            
 350   BIOMT2   1  0.000000  1.000000  0.000000        0.00000            
 350   BIOMT3   1  0.000000  0.000000  1.000000        0.00000            
 350                                                                      
 350 BIOMOLECULE: 2                                                       
 350 AUTHOR DETERMINED BIOLOGICAL UNIT: MONOMERIC                         
 350 APPLY THE FOLLOWING TO CHAINS: B                                     
 350   BIOMT1   1  1.000000  0.000000  0.000000        0.00000            
 350   BIOMT2   1  0.000000  1.000000  0.000000        0.00000            
 350   BIOMT3   1  0.000000  0.000000  1.000000        0.00000            
 350                                                                      
 350 BIOMOLECULE: 3                                                       
 350 AUTHOR DETERMINED BIOLOGICAL UNIT: MONOMERIC                         
 350 APPLY THE FOLLOWING TO CHAINS: C                                     
 350   BIOMT1   1  1.000000  0.000000  0.000000        0.00000            
 350   BIOMT2   1  0.000000  1.000000  0.000000        0.00000            
 350   BIOMT3   1  0.000000  0.000000  1.000000        0.00000            
 350                                                                      
 350 BIOMOLECULE: 4                                                       
 350 AUTHOR DETERMINED BIOLOGICAL UNIT: MONOMERIC                         
 350 APPLY THE FOLLOWING TO CHAINS: D                                     
 350   BIOMT1   1  1.000000  0.000000  0.000000        0.00000            
 350   BIOMT2   1  0.000000  1.000000  0.000000        0.00000            
 350   BIOMT3   1  0.000000  0.000000  1.000000        0.00000            
 465                                                                      
 465 MISSING RESIDUES                                                     
 465 THE FOLLOWING RESIDUES WERE NOT LOCATED IN THE                       
 465 EXPERIMENT. (M=MODEL NUMBER; RES=RESIDUE NAME; C=CHAIN               
 465 IDENTIFIER; SSSEQ=SEQUENCE NUMBER; I=INSERTION CODE.)                
 465                                                                      
 465   M RES C SSSEQI                                                     
 465     SER B    25                                                      
 465     SER D    25                                                      
 465     THR D    26                                                      
 465     ASN D    27                                                      
 465     LEU D    28                                                      
 465     VAL D    29                                                      
 470                                                                      
 470 MISSING ATOM                                                         
 470 THE FOLLOWING RESIDUES HAVE MISSING ATOMS (M=MODEL NUMBER;           
 470 RES=RESIDUE NAME; C=CHAIN IDENTIFIER; SSEQ=SEQUENCE NUMBER;          
 470 I=INSERTION CODE):                                                   
 470   M RES CSSEQI  ATOMS                                                
 470     GLY A 291    CA   C    O                                         
 470     GLY B 291    CA   C    O                                         
 470     GLY C 291    CA   C    O                                         
 470     GLY D 291    CA   C    O                                         
 500                                                                      
 500 GEOMETRY AND STEREOCHEMISTRY                                         
 500 SUBTOPIC: CLOSE CONTACTS IN SAME ASYMMETRIC UNIT                     
 500                                                                      
 500 THE FOLLOWING ATOMS ARE IN CLOSE CONTACT.                            
 500                                                                      
 500  ATM1  RES C  SSEQI   ATM2  RES C  SSEQI           DISTANCE          
 500   O    HOH B   501     O    HOH B   524              1.91            
 500   O    HOH A   549     O    HOH A   562              1.92            
 500   OG   SER D    70     B16  BX6 D   301              1.94            
 500   O    HOH B   537     O    HOH B   546              1.95            
 500   O    HOH B   517     O    HOH B   547              1.96            
 500   O    HOH A   538     O    HOH B   491              1.97            
 500   O    HOH A   535     O    HOH A   543              1.99            
 500   O    HOH A   507     O    HOH A   542              2.00            
 500   O    HOH B   532     O    HOH B   548              2.00            
 500   O    HOH D   525     O    HOH D   534              2.00            
 500   OD1  ASP C   228     O    HOH C   401              2.02            
 500   OG   SER A    70     B16  BX6 A   301              2.02            
 500   O    HOH B   498     O    HOH B   552              2.04            
 500   O    HOH C   485     O    HOH C   492              2.04            
 500   OG   SER C    70     B16  BX6 C   301              2.06            
 500   O4   PEG B   302     O4   PEG B   303              2.08            
 500   OG   SER B    70     B16  BX6 B   301              2.08            
 500   O    HOH B   535     O    HOH B   540              2.09            
 500   O    HOH B   528     O    HOH B   548              2.10            
 500   O    HOH A   488     O    HOH A   522              2.10            
 500   O    HOH A   548     O    HOH A   554              2.11            
 500   O    HOH A   553     O    HOH A   555              2.11            
 500   OE2  GLU A   141     O    HOH A   401              2.11            
 500   O    HOH B   522     O    HOH B   551              2.14            
 500   O    HOH B   514     O    HOH B   516              2.14            
 500   O    HOH A   425     O    HOH A   495              2.14            
 500   O    HOH B   478     O    HOH B   508              2.18            
 500                                                                      
 500 REMARK: NULL                                                         
 500                                                                      
 500 GEOMETRY AND STEREOCHEMISTRY                                         
 500 SUBTOPIC: CLOSE CONTACTS                                             
 500                                                                      
 500 THE FOLLOWING ATOMS THAT ARE RELATED BY CRYSTALLOGRAPHIC             
 500 SYMMETRY ARE IN CLOSE CONTACT.  AN ATOM LOCATED WITHIN 0.15          
 500 ANGSTROMS OF A SYMMETRY RELATED ATOM IS ASSUMED TO BE ON A           
 500 SPECIAL POSITION AND IS, THEREFORE, LISTED IN REMARK 375             
 500 INSTEAD OF REMARK 500.  ATOMS WITH NON-BLANK ALTERNATE               
 500 LOCATION INDICATORS ARE NOT INCLUDED IN THE CALCULATIONS.            
 500                                                                      
 500 DISTANCE CUTOFF:                                                     
 500 2.2 ANGSTROMS FOR CONTACTS NOT INVOLVING HYDROGEN ATOMS              
 500 1.6 ANGSTROMS FOR CONTACTS INVOLVING HYDROGEN ATOMS                  
 500                                                                      
 500  ATM1  RES C  SSEQI   ATM2  RES C  SSEQI  SSYMOP   DISTANCE          
 500   O    HOH B   401     O    HOH D   525     1556     2.01            
 500   O    HOH B   532     O    HOH B   533     3655     2.19            
 500                                                                      
 500 REMARK: NULL                                                         
 500                                                                      
 500 GEOMETRY AND STEREOCHEMISTRY                                         
 500 SUBTOPIC: COVALENT BOND ANGLES                                       
 500                                                                      
 500 THE STEREOCHEMICAL PARAMETERS OF THE FOLLOWING RESIDUES              
 500 HAVE VALUES WHICH DEVIATE FROM EXPECTED VALUES BY MORE               
 500 THAN 6*RMSD (M=MODEL NUMBER; RES=RESIDUE NAME; C=CHAIN               
 500 IDENTIFIER; SSEQ=SEQUENCE NUMBER; I=INSERTION CODE).                 
 500                                                                      
 500 STANDARD TABLE:                                                      
 500 FORMAT: (10X,I3,1X,A3,1X,A1,I4,A1,3(1X,A4,2X),12X,F5.1)              
 500                                                                      
 500 EXPECTED VALUES PROTEIN: ENGH AND HUBER, 1999                        
 500 EXPECTED VALUES NUCLEIC ACID: CLOWNEY ET AL 1996                     
 500                                                                      
 500  M RES CSSEQI ATM1   ATM2   ATM3                                     
 500    ARG A 266   NE  -  CZ  -  NH1 ANGL. DEV. =   3.4 DEGREES          
 500    ARG A 266   NE  -  CZ  -  NH2 ANGL. DEV. =  -3.6 DEGREES          
 500    ARG D  96   NE  -  CZ  -  NH1 ANGL. DEV. =  -3.3 DEGREES          
 500                                                                      
 500 REMARK: NULL                                                         
 500                                                                      
 500 GEOMETRY AND STEREOCHEMISTRY                                         
 500 SUBTOPIC: TORSION ANGLES                                             
 500                                                                      
 500 TORSION ANGLES OUTSIDE THE EXPECTED RAMACHANDRAN REGIONS:            
 500 (M=MODEL NUMBER; RES=RESIDUE NAME; C=CHAIN IDENTIFIER;               
 500 SSEQ=SEQUENCE NUMBER; I=INSERTION CODE).                             
 500                                                                      
 500 STANDARD TABLE:                                                      
 500 FORMAT:(10X,I3,1X,A3,1X,A1,I4,A1,4X,F7.2,3X,F7.2)                    
 500                                                                      
 500 EXPECTED VALUES: GJ KLEYWEGT AND TA JONES (1996). PHI/PSI-           
 500 CHOLOGY: RAMACHANDRAN REVISITED. STRUCTURE 4, 1395 - 1400            
 500                                                                      
 500  M RES CSSEQI        PSI       PHI                                   
 500    ASN A  27      106.54   -164.67                                   
 500    TYR A  60      114.56   -160.34                                   
 500    CYS A  69     -142.84     51.19                                   
 500    ARG A 220     -123.35   -116.49                                   
 500    ASN B  27      131.08     35.88                                   
 500    CYS B  69     -144.86     49.54                                   
 500    ARG B 220     -122.76   -117.61                                   
 500    VAL C  29       -0.03   -152.39                                   
 500    CYS C  69     -141.52     46.13                                   
 500    ASN C 100      -44.80    -29.15                                   
 500    PRO C 104      156.51    -47.51                                   
 500    ARG C 220     -122.48   -123.77                                   
 500    THR C 254       74.14     57.37                                   
 500    CYS D  69     -146.63     53.92                                   
 500    TRP D 105       61.97     64.36                                   
 500    ARG D 220     -119.85   -119.42                                   
 500                                                                      
 500 REMARK: NULL                                                         
 500                                                                      
 500 GEOMETRY AND STEREOCHEMISTRY                                         
 500 SUBTOPIC: NON-CIS, NON-TRANS                                         
 500                                                                      
 500 THE FOLLOWING PEPTIDE BONDS DEVIATE SIGNIFICANTLY FROM BOTH          
 500 CIS AND TRANS CONFORMATION.  CIS BONDS, IF ANY, ARE LISTED           
 500 ON CISPEP RECORDS.  TRANS IS DEFINED AS 180 +/- 30 AND               
 500 CIS IS DEFINED AS 0 +/- 30 DEGREES.                                  
 500                                 MODEL     OMEGA                      
 500 LEU B   28     VAL B   29                  149.57                    
 500 PRO C  252     THR C  254                  140.72                    
 500                                                                      
 500 REMARK: NULL                                                         
 800                                                                      
 800 SITE                                                                 
 800 SITE_IDENTIFIER: AC1                                                 
 800 EVIDENCE_CODE: SOFTWARE                                              
 800 SITE_DESCRIPTION: binding site for residue BX6 A 301                 
 800                                                                      
 800 SITE_IDENTIFIER: AC2                                                 
 800 EVIDENCE_CODE: SOFTWARE                                              
 800 SITE_DESCRIPTION: binding site for residue PEG A 302                 
 800                                                                      
 800 SITE_IDENTIFIER: AC3                                                 
 800 EVIDENCE_CODE: SOFTWARE                                              
 800 SITE_DESCRIPTION: binding site for residue ACY A 303                 
 800                                                                      
 800 SITE_IDENTIFIER: AC4                                                 
 800 EVIDENCE_CODE: SOFTWARE                                              
 800 SITE_DESCRIPTION: binding site for residue ACY A 304                 
 800                                                                      
 800 SITE_IDENTIFIER: AC5                                                 
 800 EVIDENCE_CODE: SOFTWARE                                              
 800 SITE_DESCRIPTION: binding site for residue BX6 B 301                 
 800                                                                      
 800 SITE_IDENTIFIER: AC6                                                 
 800 EVIDENCE_CODE: SOFTWARE                                              
 800 SITE_DESCRIPTION: binding site for residue PEG B 302                 
 800                                                                      
 800 SITE_IDENTIFIER: AC7                                                 
 800 EVIDENCE_CODE: SOFTWARE                                              
 800 SITE_DESCRIPTION: binding site for residue PEG B 303                 
 800                                                                      
 800 SITE_IDENTIFIER: AC8                                                 
 800 EVIDENCE_CODE: SOFTWARE                                              
 800 SITE_DESCRIPTION: binding site for residue PEG B 304                 
 800                                                                      
 800 SITE_IDENTIFIER: AC9                                                 
 800 EVIDENCE_CODE: SOFTWARE                                              
 800 SITE_DESCRIPTION: binding site for residue ACY B 305                 
 800                                                                      
 800 SITE_IDENTIFIER: AD1                                                 
 800 EVIDENCE_CODE: SOFTWARE                                              
 800 SITE_DESCRIPTION: binding site for residue BX6 C 301                 
 800                                                                      
 800 SITE_IDENTIFIER: AD2                                                 
 800 EVIDENCE_CODE: SOFTWARE                                              
 800 SITE_DESCRIPTION: binding site for residue PEG C 302                 
 800                                                                      
 800 SITE_IDENTIFIER: AD3                                                 
 800 EVIDENCE_CODE: SOFTWARE                                              
 800 SITE_DESCRIPTION: binding site for residue ACY C 303                 
 800                                                                      
 800 SITE_IDENTIFIER: AD4                                                 
 800 EVIDENCE_CODE: SOFTWARE                                              
 800 SITE_DESCRIPTION: binding site for residue ACY C 304                 
 800                                                                      
 800 SITE_IDENTIFIER: AD5                                                 
 800 EVIDENCE_CODE: SOFTWARE                                              
 800 SITE_DESCRIPTION: binding site for residue BX6 D 301                 
 800                                                                      
 800 SITE_IDENTIFIER: AD6                                                 
 800 EVIDENCE_CODE: SOFTWARE                                              
 800 SITE_DESCRIPTION: binding site for residue PEG D 302                 
 800                                                                      
 800 SITE_IDENTIFIER: AD7                                                 
 800 EVIDENCE_CODE: SOFTWARE                                              
 800 SITE_DESCRIPTION: binding site for residue ACY D 303                 
 800                                                                      
 800 SITE_IDENTIFIER: AD8                                                 
 800 EVIDENCE_CODE: SOFTWARE                                              
 800 SITE_DESCRIPTION: binding site for residue ACY D 304                 

>  <DBREF>
 6JN3 A   26   291  UNP    Q93LQ9   Q93LQ9_KLEPN    26    289             
 6JN3 B   26   291  UNP    Q93LQ9   Q93LQ9_KLEPN    26    289             
 6JN3 C   26   291  UNP    Q93LQ9   Q93LQ9_KLEPN    26    289             
 6JN3 D   26   291  UNP    Q93LQ9   Q93LQ9_KLEPN    26    289             

>  <SEQADV>
 6JN3 SER A   25  UNP  Q93LQ9              EXPRESSION TAG                 
 6JN3 SER B   25  UNP  Q93LQ9              EXPRESSION TAG                 
 6JN3 SER C   25  UNP  Q93LQ9              EXPRESSION TAG                 
 6JN3 SER D   25  UNP  Q93LQ9              EXPRESSION TAG                 

>  <SEQRES>
   1 A  265  SER THR ASN LEU VAL ALA GLU PRO PHE ALA LYS LEU GLU          
   2 A  265  GLN ASP PHE GLY GLY SER ILE GLY VAL TYR ALA MET ASP          
   3 A  265  THR GLY SER GLY ALA THR VAL SER TYR ARG ALA GLU GLU          
   4 A  265  ARG PHE PRO LEU CYS SER SER PHE LYS GLY PHE LEU ALA          
   5 A  265  ALA ALA VAL LEU ALA ARG SER GLN GLN GLN ALA GLY LEU          
   6 A  265  LEU ASP THR PRO ILE ARG TYR GLY LYS ASN ALA LEU VAL          
   7 A  265  PRO TRP SER PRO ILE SER GLU LYS TYR LEU THR THR GLY          
   8 A  265  MET THR VAL ALA GLU LEU SER ALA ALA ALA VAL GLN TYR          
   9 A  265  SER ASP ASN ALA ALA ALA ASN LEU LEU LEU LYS GLU LEU          
  10 A  265  GLY GLY PRO ALA GLY LEU THR ALA PHE MET ARG SER ILE          
  11 A  265  GLY ASP THR THR PHE ARG LEU ASP ARG TRP GLU LEU GLU          
  12 A  265  LEU ASN SER ALA ILE PRO GLY ASP ALA ARG ASP THR SER          
  13 A  265  SER PRO ARG ALA VAL THR GLU SER LEU GLN LYS LEU THR          
  14 A  265  LEU GLY SER ALA LEU ALA ALA PRO GLN ARG GLN GLN PHE          
  15 A  265  VAL ASP TRP LEU LYS GLY ASN THR THR GLY ASN HIS ARG          
  16 A  265  ILE ARG ALA ALA VAL PRO ALA ASP TRP ALA VAL GLY ASP          
  17 A  265  LYS THR GLY THR CYS GLY VAL TYR GLY THR ALA ASN ASP          
  18 A  265  TYR ALA VAL VAL TRP PRO THR GLY ARG ALA PRO ILE VAL          
  19 A  265  LEU ALA VAL TYR THR ARG ALA PRO ASN LYS ASP ASP LYS          
  20 A  265  HIS SER GLU ALA VAL ILE ALA ALA ALA ALA ARG LEU ALA          
  21 A  265  LEU GLU GLY LEU GLY                                          
   1 B  265  SER THR ASN LEU VAL ALA GLU PRO PHE ALA LYS LEU GLU          
   2 B  265  GLN ASP PHE GLY GLY SER ILE GLY VAL TYR ALA MET ASP          
   3 B  265  THR GLY SER GLY ALA THR VAL SER TYR ARG ALA GLU GLU          
   4 B  265  ARG PHE PRO LEU CYS SER SER PHE LYS GLY PHE LEU ALA          
   5 B  265  ALA ALA VAL LEU ALA ARG SER GLN GLN GLN ALA GLY LEU          
   6 B  265  LEU ASP THR PRO ILE ARG TYR GLY LYS ASN ALA LEU VAL          
   7 B  265  PRO TRP SER PRO ILE SER GLU LYS TYR LEU THR THR GLY          
   8 B  265  MET THR VAL ALA GLU LEU SER ALA ALA ALA VAL GLN TYR          
   9 B  265  SER ASP ASN ALA ALA ALA ASN LEU LEU LEU LYS GLU LEU          
  10 B  265  GLY GLY PRO ALA GLY LEU THR ALA PHE MET ARG SER ILE          
  11 B  265  GLY ASP THR THR PHE ARG LEU ASP ARG TRP GLU LEU GLU          
  12 B  265  LEU ASN SER ALA ILE PRO GLY ASP ALA ARG ASP THR SER          
  13 B  265  SER PRO ARG ALA VAL THR GLU SER LEU GLN LYS LEU THR          
  14 B  265  LEU GLY SER ALA LEU ALA ALA PRO GLN ARG GLN GLN PHE          
  15 B  265  VAL ASP TRP LEU LYS GLY ASN THR THR GLY ASN HIS ARG          
  16 B  265  ILE ARG ALA ALA VAL PRO ALA ASP TRP ALA VAL GLY ASP          
  17 B  265  LYS THR GLY THR CYS GLY VAL TYR GLY THR ALA ASN ASP          
  18 B  265  TYR ALA VAL VAL TRP PRO THR GLY ARG ALA PRO ILE VAL          
  19 B  265  LEU ALA VAL TYR THR ARG ALA PRO ASN LYS ASP ASP LYS          
  20 B  265  HIS SER GLU ALA VAL ILE ALA ALA ALA ALA ARG LEU ALA          
  21 B  265  LEU GLU GLY LEU GLY                                          
   1 C  265  SER THR ASN LEU VAL ALA GLU PRO PHE ALA LYS LEU GLU          
   2 C  265  GLN ASP PHE GLY GLY SER ILE GLY VAL TYR ALA MET ASP          
   3 C  265  THR GLY SER GLY ALA THR VAL SER TYR ARG ALA GLU GLU          
   4 C  265  ARG PHE PRO LEU CYS SER SER PHE LYS GLY PHE LEU ALA          
   5 C  265  ALA ALA VAL LEU ALA ARG SER GLN GLN GLN ALA GLY LEU          
   6 C  265  LEU ASP THR PRO ILE ARG TYR GLY LYS ASN ALA LEU VAL          
   7 C  265  PRO TRP SER PRO ILE SER GLU LYS TYR LEU THR THR GLY          
   8 C  265  MET THR VAL ALA GLU LEU SER ALA ALA ALA VAL GLN TYR          
   9 C  265  SER ASP ASN ALA ALA ALA ASN LEU LEU LEU LYS GLU LEU          
  10 C  265  GLY GLY PRO ALA GLY LEU THR ALA PHE MET ARG SER ILE          
  11 C  265  GLY ASP THR THR PHE ARG LEU ASP ARG TRP GLU LEU GLU          
  12 C  265  LEU ASN SER ALA ILE PRO GLY ASP ALA ARG ASP THR SER          
  13 C  265  SER PRO ARG ALA VAL THR GLU SER LEU GLN LYS LEU THR          
  14 C  265  LEU GLY SER ALA LEU ALA ALA PRO GLN ARG GLN GLN PHE          
  15 C  265  VAL ASP TRP LEU LYS GLY ASN THR THR GLY ASN HIS ARG          
  16 C  265  ILE ARG ALA ALA VAL PRO ALA ASP TRP ALA VAL GLY ASP          
  17 C  265  LYS THR GLY THR CYS GLY VAL TYR GLY THR ALA ASN ASP          
  18 C  265  TYR ALA VAL VAL TRP PRO THR GLY ARG ALA PRO ILE VAL          
  19 C  265  LEU ALA VAL TYR THR ARG ALA PRO ASN LYS ASP ASP LYS          
  20 C  265  HIS SER GLU ALA VAL ILE ALA ALA ALA ALA ARG LEU ALA          
  21 C  265  LEU GLU GLY LEU GLY                                          
   1 D  265  SER THR ASN LEU VAL ALA GLU PRO PHE ALA LYS LEU GLU          
   2 D  265  GLN ASP PHE GLY GLY SER ILE GLY VAL TYR ALA MET ASP          
   3 D  265  THR GLY SER GLY ALA THR VAL SER TYR ARG ALA GLU GLU          
   4 D  265  ARG PHE PRO LEU CYS SER SER PHE LYS GLY PHE LEU ALA          
   5 D  265  ALA ALA VAL LEU ALA ARG SER GLN GLN GLN ALA GLY LEU          
   6 D  265  LEU ASP THR PRO ILE ARG TYR GLY LYS ASN ALA LEU VAL          
   7 D  265  PRO TRP SER PRO ILE SER GLU LYS TYR LEU THR THR GLY          
   8 D  265  MET THR VAL ALA GLU LEU SER ALA ALA ALA VAL GLN TYR          
   9 D  265  SER ASP ASN ALA ALA ALA ASN LEU LEU LEU LYS GLU LEU          
  10 D  265  GLY GLY PRO ALA GLY LEU THR ALA PHE MET ARG SER ILE          
  11 D  265  GLY ASP THR THR PHE ARG LEU ASP ARG TRP GLU LEU GLU          
  12 D  265  LEU ASN SER ALA ILE PRO GLY ASP ALA ARG ASP THR SER          
  13 D  265  SER PRO ARG ALA VAL THR GLU SER LEU GLN LYS LEU THR          
  14 D  265  LEU GLY SER ALA LEU ALA ALA PRO GLN ARG GLN GLN PHE          
  15 D  265  VAL ASP TRP LEU LYS GLY ASN THR THR GLY ASN HIS ARG          
  16 D  265  ILE ARG ALA ALA VAL PRO ALA ASP TRP ALA VAL GLY ASP          
  17 D  265  LYS THR GLY THR CYS GLY VAL TYR GLY THR ALA ASN ASP          
  18 D  265  TYR ALA VAL VAL TRP PRO THR GLY ARG ALA PRO ILE VAL          
  19 D  265  LEU ALA VAL TYR THR ARG ALA PRO ASN LYS ASP ASP LYS          
  20 D  265  HIS SER GLU ALA VAL ILE ALA ALA ALA ALA ARG LEU ALA          
  21 D  265  LEU GLU GLY LEU GLY                                          

>  <HET>
 BX6  A 301      18                                                       
 PEG  A 302       7                                                       
 ACY  A 303       4                                                       
 ACY  A 304       4                                                       
 BX6  B 301      18                                                       
 PEG  B 302       7                                                       
 PEG  B 303       7                                                       
 PEG  B 304       7                                                       
 ACY  B 305       4                                                       
 BX6  C 301      18                                                       
 PEG  C 302       7                                                       
 ACY  C 303       4                                                       
 ACY  C 304       4                                                       
 BX6  D 301      18                                                       
 PEG  D 302       7                                                       
 ACY  D 303       4                                                       
 ACY  D 304       4                                                       

>  <HETNAM>
     BX6 [(1R)-1-[[(2S)-2-METHYL-3-SULFANYL-PROPANOYL]AMINO]-2-           
   2 BX6  PHENYL-ETHYL]BORONIC ACID                                       
     PEG DI(HYDROXYETHYL)ETHER                                            
     ACY ACETIC ACID                                                      

>  <FORMUL>
   5  BX6    4(C12 H18 B N O3 S)                                          
   6  PEG    6(C4 H10 O3)                                                 
   7  ACY    7(C2 H4 O2)                                                  
  22  HOH   *551(H2 O)                                                    

>  <HELIX>
   1 AA1 ALA A   30  GLY A   41  1                                  12    
   2 AA2 SER A   71  GLN A   85  1                                  15    
   3 AA3 GLY A   98  LEU A  102  5                                   5    
   4 AA4 SER A  106  TYR A  112  1                                   7    
   5 AA5 VAL A  119  TYR A  129  1                                  11    
   6 AA6 ASP A  131  LEU A  142  1                                  12    
   7 AA7 GLY A  143  ILE A  155  1                                  13    
   8 AA8 LEU A  167  SER A  171  5                                   5    
   9 AA9 SER A  182  LEU A  195  1                                  14    
  10 AB1 ALA A  200  GLY A  213  1                                  14    
  11 AB2 ARG A  220  VAL A  225  1                                   6    
  12 AB3 SER A  275  LEU A  290  1                                  16    
  13 AB4 VAL B   29  GLY B   41  1                                  13    
  14 AB5 SER B   71  GLN B   85  1                                  15    
  15 AB6 GLY B   98  LEU B  102  5                                   5    
  16 AB7 SER B  106  TYR B  112  1                                   7    
  17 AB8 VAL B  119  TYR B  129  1                                  11    
  18 AB9 ASP B  131  LEU B  142  1                                  12    
  19 AC1 GLY B  143  ILE B  155  1                                  13    
  20 AC2 LEU B  167  SER B  171  5                                   5    
  21 AC3 SER B  182  LEU B  195  1                                  14    
  22 AC4 ALA B  200  GLY B  213  1                                  14    
  23 AC5 ARG B  220  VAL B  225  5                                   6    
  24 AC6 SER B  275  LEU B  290  1                                  16    
  25 AC7 VAL C   29  GLY C   41  1                                  13    
  26 AC8 SER C   71  GLN C   87  1                                  17    
  27 AC9 GLY C   89  ASP C   92  5                                   4    
  28 AD1 GLY C   98  LEU C  102  5                                   5    
  29 AD2 SER C  106  TYR C  112  1                                   7    
  30 AD3 VAL C  119  SER C  130  1                                  12    
  31 AD4 ASP C  131  LEU C  142  1                                  12    
  32 AD5 GLY C  143  ILE C  155  1                                  13    
  33 AD6 LEU C  167  SER C  171  5                                   5    
  34 AD7 SER C  182  GLY C  196  1                                  15    
  35 AD8 ALA C  200  GLY C  213  1                                  14    
  36 AD9 ARG C  220  VAL C  225  5                                   6    
  37 AE1 SER C  275  LEU C  290  1                                  16    
  38 AE2 GLU D   31  GLY D   41  1                                  11    
  39 AE3 SER D   71  GLN D   85  1                                  15    
  40 AE4 GLY D   89  ASP D   92  5                                   4    
  41 AE5 GLY D   98  LEU D  102  5                                   5    
  42 AE6 SER D  106  TYR D  112  1                                   7    
  43 AE7 VAL D  119  SER D  130  1                                  12    
  44 AE8 ASP D  131  LEU D  142  1                                  12    
  45 AE9 GLY D  143  ILE D  155  1                                  13    
  46 AF1 LEU D  167  SER D  171  5                                   5    
  47 AF2 SER D  182  LEU D  195  1                                  14    
  48 AF3 ALA D  200  GLY D  213  1                                  14    
  49 AF4 ARG D  220  VAL D  225  5                                   6    
  50 AF5 SER D  275  GLY D  289  1                                  15    

>  <SHEET>
   1 AA1 5 THR A  56  TYR A  60  0                                        
   2 AA1 5 SER A  43  ASP A  50 -1  N  VAL A  46   O  TYR A  60           
   3 AA1 5 ILE A 259  ARG A 266 -1  O  ARG A 266   N  SER A  43           
   4 AA1 5 ALA A 244  TRP A 251 -1  N  VAL A 250   O  ILE A 259           
   5 AA1 5 ALA A 230  THR A 237 -1  N  GLY A 236   O  ASN A 245           
   1 AA2 2 PHE A  66  PRO A  67  0                                        
   2 AA2 2 THR A 180  SER A 181 -1  O  SER A 181   N  PHE A  66           
   1 AA3 2 PRO A  94  ILE A  95  0                                        
   2 AA3 2 MET A 117  THR A 118 -1  O  MET A 117   N  ILE A  95           
   1 AA4 5 THR B  56  TYR B  60  0                                        
   2 AA4 5 SER B  43  ASP B  50 -1  N  VAL B  46   O  TYR B  60           
   3 AA4 5 ILE B 259  ARG B 266 -1  O  ARG B 266   N  SER B  43           
   4 AA4 5 ALA B 244  TRP B 251 -1  N  VAL B 250   O  ILE B 259           
   5 AA4 5 ALA B 230  THR B 237 -1  N  ALA B 230   O  TRP B 251           
   1 AA5 2 PHE B  66  PRO B  67  0                                        
   2 AA5 2 THR B 180  SER B 181 -1  O  SER B 181   N  PHE B  66           
   1 AA6 2 PRO B  94  ILE B  95  0                                        
   2 AA6 2 MET B 117  THR B 118 -1  O  MET B 117   N  ILE B  95           
   1 AA7 5 THR C  56  TYR C  60  0                                        
   2 AA7 5 SER C  43  ASP C  50 -1  N  VAL C  46   O  TYR C  60           
   3 AA7 5 ILE C 259  ARG C 266 -1  O  TYR C 264   N  GLY C  45           
   4 AA7 5 ALA C 244  TRP C 251 -1  N  ASP C 246   O  VAL C 263           
   5 AA7 5 ALA C 230  THR C 237 -1  N  ALA C 230   O  TRP C 251           
   1 AA8 2 PHE C  66  PRO C  67  0                                        
   2 AA8 2 THR C 180  SER C 181 -1  O  SER C 181   N  PHE C  66           
   1 AA9 2 PRO C  94  ILE C  95  0                                        
   2 AA9 2 MET C 117  THR C 118 -1  O  MET C 117   N  ILE C  95           
   1 AB1 5 THR D  56  TYR D  60  0                                        
   2 AB1 5 SER D  43  ASP D  50 -1  N  VAL D  46   O  TYR D  60           
   3 AB1 5 ILE D 259  ARG D 266 -1  O  TYR D 264   N  GLY D  45           
   4 AB1 5 ALA D 244  TRP D 251 -1  N  VAL D 250   O  ILE D 259           
   5 AB1 5 ALA D 230  THR D 237 -1  N  ALA D 230   O  TRP D 251           
   1 AB2 2 PHE D  66  PRO D  67  0                                        
   2 AB2 2 THR D 180  SER D 181 -1  O  SER D 181   N  PHE D  66           
   1 AB3 2 PRO D  94  ILE D  95  0                                        
   2 AB3 2 MET D 117  THR D 118 -1  O  MET D 117   N  ILE D  95           

>  <SSBOND>
   1 CYS A   69    CYS A  238                          1555   1555  2.11  
   2 CYS B   69    CYS B  238                          1555   1555  2.08  
   3 CYS C   69    CYS C  238                          1555   1555  2.07  
   4 CYS D   69    CYS D  238                          1555   1555  2.06  

>  <CISPEP>
   1 GLU A  166    LEU A  167          0        -4.68                     
   2 GLU B  166    LEU B  167          0        -0.04                     
   3 GLU C  166    LEU C  167          0         2.14                     
   4 GLU D  166    LEU D  167          0         8.46                     

>  <SITE>
   1 AC1  9 CYS A  69  SER A  70  TRP A 105  ASN A 132                    
   2 AC1  9 GLU A 166  ASN A 170  THR A 237  CYS A 238                    
   3 AC1  9 ACY A 303                                                     
   1 AC2  1 TRP A 165                                                     
   1 AC3  7 SER A  70  SER A 130  LYS A 234  THR A 235                    
   2 AC3  7 GLY A 236  THR A 237  BX6 A 301                               
   1 AC4  5 SER A 275  GLU A 276  ALA A 277  HOH A 410                    
   2 AC4  5 LYS C 273                                                     
   1 AC5  7 SER B  70  ASN B 132  GLU B 166  ASN B 170                    
   2 AC5  7 THR B 237  CYS B 238  ACY B 305                               
   1 AC6  4 THR B  51  PEG B 303  HOH B 430  HOH B 442                    
   1 AC7  3 GLN B 191  LYS B 192  PEG B 302                               
   1 AC8  4 GLN B  85  ALA B  88  HOH B 401  GLN D  85                    
   1 AC9  6 SER B  70  SER B 130  LYS B 234  THR B 235                    
   2 AC9  6 THR B 237  BX6 B 301                                          
   1 AD1  8 SER C  70  TRP C 105  ASN C 132  GLU C 166                    
   2 AD1  8 ASN C 170  THR C 237  CYS C 238  ACY C 303                    
   1 AD2  3 ASN C 100  HOH C 442  MET D  49                               
   1 AD3  7 SER C  70  SER C 130  LYS C 234  THR C 235                    
   2 AD3  7 GLY C 236  THR C 237  BX6 C 301                               
   1 AD4  4 SER C 275  GLU C 276  ALA C 277  HOH C 416                    
   1 AD5  8 CYS D  69  SER D  70  TRP D 105  ASN D 132                    
   2 AD5  8 GLU D 166  ASN D 170  THR D 237  ACY D 303                    
   1 AD6  2 THR A 254  LYS D 140                                          
   1 AD7  6 SER D  70  SER D 130  THR D 235  GLY D 236                    
   2 AD7  6 THR D 237  BX6 D 301                                          
   1 AD8  3 SER D 275  GLU D 276  ALA D 277                               

>  <ORIGX1>
      1.000000  0.000000  0.000000        0.00000                         

>  <ORIGX2>
      0.000000  1.000000  0.000000        0.00000                         

>  <ORIGX3>
      0.000000  0.000000  1.000000        0.00000                         

>  <SCALE1>
      0.006042  0.003488  0.000000        0.00000                         

>  <SCALE2>
      0.000000  0.006976  0.000000        0.00000                         

>  <SCALE3>
      0.000000  0.000000  0.010562        0.00000                         

>  <MASTER>
      450    0   17   50   36    0   27    6 8547    4  150   84          

$$$$
