start_structures/Ligand_Substrate/Ligand_Complex_Stripped/BX9_6JN4.pdb
 OpenBabel08222315203D

 24 24  0  0  1  0  0  0  0  0999 V2000
  125.0960  -56.5440  125.0410 N   0  0  0  0  0  0  0  0  0  0  0  0
  126.3150  -56.4990  124.2400 C   0  0  2  0  0  0  0  0  0  0  0  0
  126.5150  -55.1940  123.4780 C   0  0  0  0  0  0  0  0  0  0  0  0
  127.5940  -55.0130  122.8820 O   0  0  0  0  0  0  0  0  0  0  0  0
  126.3470  -57.6430  123.2360 C   0  0  0  0  0  0  0  0  0  0  0  0
  126.6780  -58.8630  123.7990 O   0  0  0  0  0  0  0  0  0  0  0  0
  125.9260  -61.1970  124.8060 C   0  0  2  0  0  0  0  0  0  0  0  0
  124.8620  -61.9050  125.4750 N   0  0  0  0  0  0  0  0  0  0  0  0
  125.1070  -63.1750  126.0740 C   0  0  0  0  0  0  0  0  0  0  0  0
  126.2230  -63.6030  126.0920 O   0  0  0  0  0  0  0  0  0  0  0  0
  123.8670  -63.8840  126.6570 C   0  0  1  0  0  0  0  0  0  0  0  0
  123.3180  -64.9700  125.6780 C   0  0  0  0  0  0  0  0  0  0  0  0
  121.7310  -64.6390  124.7820 S   0  0  0  0  0  0  0  0  0  0  0  0
  124.2720  -64.4010  128.0290 C   0  0  0  0  0  0  0  0  0  0  0  0
  125.6190  -59.6610  124.9360 B   0  0  0  0  0  0  0  0  0  0  0  0
  124.4430  -59.1780  124.4790 O   0  0  0  0  0  0  0  0  0  0  0  0
  126.1370  -59.1050  126.0440 O   0  0  0  0  0  0  0  0  0  0  0  0
  125.8470  -61.7840  123.4100 C   0  0  0  0  0  0  0  0  0  0  0  0
  124.6150  -62.0400  122.8650 C   0  0  0  0  0  0  0  0  0  0  0  0
  124.4690  -62.5590  121.5880 C   0  0  0  0  0  0  0  0  0  0  0  0
  125.5840  -62.8800  120.8520 C   0  0  0  0  0  0  0  0  0  0  0  0
  126.8280  -62.6610  121.4070 C   0  0  0  0  0  0  0  0  0  0  0  0
  126.9640  -62.1070  122.6650 C   0  0  0  0  0  0  0  0  0  0  0  0
  125.4290  -63.4120  119.6110 F   0  0  0  0  0  0  0  0  0  0  0  0
  2  1  1  6  0  0  0
  3  2  1  0  0  0  0
  4  3  2  0  0  0  0
  5  6  1  0  0  0  0
  5  2  1  0  0  0  0
  6 15  1  0  0  0  0
  7  8  1  1  0  0  0
  7 15  1  0  0  0  0
  7 18  1  0  0  0  0
  8  9  1  0  0  0  0
  9 10  2  0  0  0  0
  9 11  1  0  0  0  0
 11 12  1  0  0  0  0
 11 14  1  1  0  0  0
 12 13  1  0  0  0  0
 15 16  1  0  0  0  0
 15 17  1  0  0  0  0
 18 19  2  0  0  0  0
 18 23  1  0  0  0  0
 19 20  1  0  0  0  0
 20 21  2  0  0  0  0
 21 22  1  0  0  0  0
 21 24  1  0  0  0  0
 22 23  2  0  0  0  0
M  END
>  <HEADER>
    HYDROLASE                               13-MAR-19   6JN4              

>  <TITLE>
    SERINE BETA-LACTAMASE KPC-2 IN COMPLEX WITH DUAL MBL/SBL INHIBITOR WL-
   2 001                                                                  

>  <COMPND>
    MOL_ID: 1;                                                            
   2 MOLECULE: SERINE BETA-LACTAMASE KPC-2;                               
   3 CHAIN: A, B, C, D;                                                   
   4 EC: 3.5.2.6;                                                         
   5 ENGINEERED: YES                                                      

>  <SOURCE>
    MOL_ID: 1;                                                            
   2 ORGANISM_SCIENTIFIC: KLEBSIELLA PNEUMONIAE;                          
   3 ORGANISM_TAXID: 573;                                                 
   4 GENE: KPC-2;                                                         
   5 EXPRESSION_SYSTEM: ESCHERICHIA COLI BL21(DE3);                       
   6 EXPRESSION_SYSTEM_TAXID: 469008                                      

>  <KEYWDS>
    BETA-LACTAMASE, SERINE-BETA-LACTAMASE KPC-2, KPC-2, CARBAPENEMASE,    
   2 HYDROLASE                                                            

>  <EXPDTA>
    X-RAY DIFFRACTION                                                     

>  <AUTHOR>
    G.-B.LI,S.LIU                                                         

>  <REVDAT>
   2   21-AUG-19 6JN4    1       JRNL                                     
   1   17-JUL-19 6JN4    0                                                

>  <JRNL>
      AUTH   Y.L.WANG,S.LIU,Z.J.YU,Y.LEI,M.Y.HUANG,Y.H.YAN,Q.MA,Y.ZHENG,  
      AUTH 2 H.DENG,Y.SUN,C.WU,Y.YU,Q.CHEN,Z.WANG,Y.WU,G.B.LI             
      TITL   STRUCTURE-BASED DEVELOPMENT OF                               
      TITL 2 (1-(3'-MERCAPTOPROPANAMIDO)METHYL)BORONIC ACID DERIVED       
      TITL 3 BROAD-SPECTRUM, DUAL-ACTION INHIBITORS OF METALLO- AND       
      TITL 4 SERINE-BETA-LACTAMASES.                                      
      REF    J.MED.CHEM.                   V.  62  7160 2019              
      REFN                   ISSN 0022-2623                               
      PMID   31269398                                                     
      DOI    10.1021/ACS.JMEDCHEM.9B00735                                 

>  <REMARK>
   2                                                                      
   2 RESOLUTION.    1.90 ANGSTROMS.                                       
   3                                                                      
   3 REFINEMENT.                                                          
   3   PROGRAM     : PHENIX 1.10.1_2155                                   
   3   AUTHORS     : PAUL ADAMS,PAVEL AFONINE,VINCENT CHEN,IAN            
   3               : DAVIS,KRESHNA GOPAL,RALF GROSSE-KUNSTLEVE,           
   3               : LI-WEI HUNG,ROBERT IMMORMINO,TOM IOERGER,            
   3               : AIRLIE MCCOY,ERIK MCKEE,NIGEL MORIARTY,              
   3               : REETAL PAI,RANDY READ,JANE RICHARDSON,               
   3               : DAVID RICHARDSON,TOD ROMO,JIM SACCHETTINI,           
   3               : NICHOLAS SAUTER,JACOB SMITH,LAURENT                  
   3               : STORONI,TOM TERWILLIGER,PETER ZWART                  
   3                                                                      
   3    REFINEMENT TARGET : NULL                                          
   3                                                                      
   3  DATA USED IN REFINEMENT.                                            
   3   RESOLUTION RANGE HIGH (ANGSTROMS) : 1.90                           
   3   RESOLUTION RANGE LOW  (ANGSTROMS) : 47.57                          
   3   MIN(FOBS/SIGMA_FOBS)              : 1.340                          
   3   COMPLETENESS FOR RANGE        (%) : 99.2                           
   3   NUMBER OF REFLECTIONS             : 115321                         
   3                                                                      
   3  FIT TO DATA USED IN REFINEMENT.                                     
   3   R VALUE     (WORKING + TEST SET) : 0.181                           
   3   R VALUE            (WORKING SET) : 0.181                           
   3   FREE R VALUE                     : 0.221                           
   3   FREE R VALUE TEST SET SIZE   (%) : 1.730                           
   3   FREE R VALUE TEST SET COUNT      : 1990                            
   3                                                                      
   3  FIT TO DATA USED IN REFINEMENT (IN BINS).                           
   3   BIN  RESOLUTION RANGE  COMPL.    NWORK NFREE   RWORK  RFREE        
   3     1 47.5842 -  4.5787    0.99     8358   148  0.1692 0.1851        
   3     2  4.5787 -  3.6346    1.00     8222   133  0.1560 0.2058        
   3     3  3.6346 -  3.1753    1.00     8143   142  0.1728 0.1869        
   3     4  3.1753 -  2.8850    1.00     8152   144  0.1854 0.2566        
   3     5  2.8850 -  2.6783    1.00     8173   144  0.1747 0.1981        
   3     6  2.6783 -  2.5204    1.00     8108   148  0.1697 0.2079        
   3     7  2.5204 -  2.3941    1.00     8097   143  0.1755 0.2440        
   3     8  2.3941 -  2.2899    1.00     8096   142  0.1845 0.2359        
   3     9  2.2899 -  2.2018    1.00     8082   142  0.1908 0.2315        
   3    10  2.2018 -  2.1258    0.99     8084   142  0.2029 0.2712        
   3    11  2.1258 -  2.0593    1.00     8049   144  0.2013 0.2537        
   3    12  2.0593 -  2.0005    0.99     8056   138  0.2129 0.2505        
   3    13  2.0005 -  1.9478    0.99     7988   142  0.2231 0.2620        
   3    14  1.9478 -  1.9003    0.96     7723   138  0.2449 0.2906        
   3                                                                      
   3  BULK SOLVENT MODELLING.                                             
   3   METHOD USED        : NULL                                          
   3   SOLVENT RADIUS     : 1.11                                          
   3   SHRINKAGE RADIUS   : 0.90                                          
   3   K_SOL              : NULL                                          
   3   B_SOL              : NULL                                          
   3                                                                      
   3  ERROR ESTIMATES.                                                    
   3   COORDINATE ERROR (MAXIMUM-LIKELIHOOD BASED)     : 0.200            
   3   PHASE ERROR (DEGREES, MAXIMUM-LIKELIHOOD BASED) : 20.280           
   3                                                                      
   3  B VALUES.                                                           
   3   FROM WILSON PLOT           (A**2) : 19.14                          
   3   MEAN B VALUE      (OVERALL, A**2) : 22.57                          
   3   OVERALL ANISOTROPIC B VALUE.                                       
   3    B11 (A**2) : NULL                                                 
   3    B22 (A**2) : NULL                                                 
   3    B33 (A**2) : NULL                                                 
   3    B12 (A**2) : NULL                                                 
   3    B13 (A**2) : NULL                                                 
   3    B23 (A**2) : NULL                                                 
   3                                                                      
   3  TWINNING INFORMATION.                                               
   3   FRACTION: NULL                                                     
   3   OPERATOR: NULL                                                     
   3                                                                      
   3  DEVIATIONS FROM IDEAL VALUES.                                       
   3                 RMSD          COUNT                                  
   3   BOND      :  0.012           8142                                  
   3   ANGLE     :  1.142          11059                                  
   3   CHIRALITY :  0.061           1249                                  
   3   PLANARITY :  0.007           1441                                  
   3   DIHEDRAL  : 15.851           4785                                  
   3                                                                      
   3  TLS DETAILS                                                         
   3   NUMBER OF TLS GROUPS  : NULL                                       
   3                                                                      
   3  NCS DETAILS                                                         
   3   NUMBER OF NCS GROUPS : NULL                                        
   3                                                                      
   3  OTHER REFINEMENT REMARKS: NULL                                      
   4                                                                      
   4 6JN4 COMPLIES WITH FORMAT V. 3.30, 13-JUL-11                         
 100                                                                      
 100 THIS ENTRY HAS BEEN PROCESSED BY PDBJ ON 27-MAR-19.                  
 100 THE DEPOSITION ID IS D_1300011357.                                   
 200                                                                      
 200 EXPERIMENTAL DETAILS                                                 
 200  EXPERIMENT TYPE                : X-RAY DIFFRACTION                  
 200  DATE OF DATA COLLECTION        : 01-JUN-18                          
 200  TEMPERATURE           (KELVIN) : 195                                
 200  PH                             : 4.5                                
 200  NUMBER OF CRYSTALS USED        : 1                                  
 200                                                                      
 200  SYNCHROTRON              (Y/N) : Y                                  
 200  RADIATION SOURCE               : SSRF                               
 200  BEAMLINE                       : BL19U1                             
 200  X-RAY GENERATOR MODEL          : NULL                               
 200  MONOCHROMATIC OR LAUE    (M/L) : M                                  
 200  WAVELENGTH OR RANGE        (A) : 1.0000                             
 200  MONOCHROMATOR                  : NULL                               
 200  OPTICS                         : NULL                               
 200                                                                      
 200  DETECTOR TYPE                  : PIXEL                              
 200  DETECTOR MANUFACTURER          : DECTRIS PILATUS3 X CDTE 1M         
 200  INTENSITY-INTEGRATION SOFTWARE : NULL                               
 200  DATA SCALING SOFTWARE          : SCALEPACK                          
 200                                                                      
 200  NUMBER OF UNIQUE REFLECTIONS   : 116149                             
 200  RESOLUTION RANGE HIGH      (A) : 1.900                              
 200  RESOLUTION RANGE LOW       (A) : 50.000                             
 200  REJECTION CRITERIA  (SIGMA(I)) : NULL                               
 200                                                                      
 200 OVERALL.                                                             
 200  COMPLETENESS FOR RANGE     (%) : 100.0                              
 200  DATA REDUNDANCY                : 19.60                              
 200  R MERGE                    (I) : 0.30500                            
 200  R SYM                      (I) : NULL                               
 200  <I/SIGMA(I)> FOR THE DATA SET  : 3.9000                             
 200                                                                      
 200 IN THE HIGHEST RESOLUTION SHELL.                                     
 200  HIGHEST RESOLUTION SHELL, RANGE HIGH (A) : 1.90                     
 200  HIGHEST RESOLUTION SHELL, RANGE LOW  (A) : 1.93                     
 200  COMPLETENESS FOR SHELL     (%) : 100.0                              
 200  DATA REDUNDANCY IN SHELL       : 19.50                              
 200  R MERGE FOR SHELL          (I) : 0.90600                            
 200  R SYM FOR SHELL            (I) : NULL                               
 200  <I/SIGMA(I)> FOR SHELL         : NULL                               
 200                                                                      
 200 DIFFRACTION PROTOCOL: SINGLE WAVELENGTH                              
 200 METHOD USED TO DETERMINE THE STRUCTURE: MOLECULAR REPLACEMENT        
 200 SOFTWARE USED: PHASER 2.6.0                                          
 200 STARTING MODEL: 5LCA                                                 
 200                                                                      
 200 REMARK: NULL                                                         
 280                                                                      
 280 CRYSTAL                                                              
 280 SOLVENT CONTENT, VS   (%): 62.77                                     
 280 MATTHEWS COEFFICIENT, VM (ANGSTROMS**3/DA): 3.30                     
 280                                                                      
 280 CRYSTALLIZATION CONDITIONS: 0.1M LITHIUM SULPHATE, 0.05M SODIUM      
 280  ACETATE (PH 4.5), 32-35 % (V/V) POLYETHYLENE GLYCOL 8000, VAPOR     
 280  DIFFUSION, HANGING DROP, TEMPERATURE 293K                           
 290                                                                      
 290 CRYSTALLOGRAPHIC SYMMETRY                                            
 290 SYMMETRY OPERATORS FOR SPACE GROUP: P 3 2 1                          
 290                                                                      
 290      SYMOP   SYMMETRY                                                
 290     NNNMMM   OPERATOR                                                
 290       1555   X,Y,Z                                                   
 290       2555   -Y,X-Y,Z                                                
 290       3555   -X+Y,-X,Z                                               
 290       4555   Y,X,-Z                                                  
 290       5555   X-Y,-Y,-Z                                               
 290       6555   -X,-X+Y,-Z                                              
 290                                                                      
 290     WHERE NNN -> OPERATOR NUMBER                                     
 290           MMM -> TRANSLATION VECTOR                                  
 290                                                                      
 290 CRYSTALLOGRAPHIC SYMMETRY TRANSFORMATIONS                            
 290 THE FOLLOWING TRANSFORMATIONS OPERATE ON THE ATOM/HETATM             
 290 RECORDS IN THIS ENTRY TO PRODUCE CRYSTALLOGRAPHICALLY                
 290 RELATED MOLECULES.                                                   
 290   SMTRY1   1  1.000000  0.000000  0.000000        0.00000            
 290   SMTRY2   1  0.000000  1.000000  0.000000        0.00000            
 290   SMTRY3   1  0.000000  0.000000  1.000000        0.00000            
 290   SMTRY1   2 -0.500000 -0.866025  0.000000        0.00000            
 290   SMTRY2   2  0.866025 -0.500000  0.000000        0.00000            
 290   SMTRY3   2  0.000000  0.000000  1.000000        0.00000            
 290   SMTRY1   3 -0.500000  0.866025  0.000000        0.00000            
 290   SMTRY2   3 -0.866025 -0.500000  0.000000        0.00000            
 290   SMTRY3   3  0.000000  0.000000  1.000000        0.00000            
 290   SMTRY1   4 -0.500000  0.866025  0.000000        0.00000            
 290   SMTRY2   4  0.866025  0.500000  0.000000        0.00000            
 290   SMTRY3   4  0.000000  0.000000 -1.000000        0.00000            
 290   SMTRY1   5  1.000000  0.000000  0.000000        0.00000            
 290   SMTRY2   5  0.000000 -1.000000  0.000000        0.00000            
 290   SMTRY3   5  0.000000  0.000000 -1.000000        0.00000            
 290   SMTRY1   6 -0.500000 -0.866025  0.000000        0.00000            
 290   SMTRY2   6 -0.866025  0.500000  0.000000        0.00000            
 290   SMTRY3   6  0.000000  0.000000 -1.000000        0.00000            
 290                                                                      
 290 REMARK: NULL                                                         
 300                                                                      
 300 BIOMOLECULE: 1, 2, 3, 4                                              
 300 SEE REMARK 350 FOR THE AUTHOR PROVIDED AND/OR PROGRAM                
 300 GENERATED ASSEMBLY INFORMATION FOR THE STRUCTURE IN                  
 300 THIS ENTRY. THE REMARK MAY ALSO PROVIDE INFORMATION ON               
 300 BURIED SURFACE AREA.                                                 
 350                                                                      
 350 COORDINATES FOR A COMPLETE MULTIMER REPRESENTING THE KNOWN           
 350 BIOLOGICALLY SIGNIFICANT OLIGOMERIZATION STATE OF THE                
 350 MOLECULE CAN BE GENERATED BY APPLYING BIOMT TRANSFORMATIONS          
 350 GIVEN BELOW.  BOTH NON-CRYSTALLOGRAPHIC AND                          
 350 CRYSTALLOGRAPHIC OPERATIONS ARE GIVEN.                               
 350                                                                      
 350 BIOMOLECULE: 1                                                       
 350 AUTHOR DETERMINED BIOLOGICAL UNIT: MONOMERIC                         
 350 APPLY THE FOLLOWING TO CHAINS: A                                     
 350   BIOMT1   1  1.000000  0.000000  0.000000        0.00000            
 350   BIOMT2   1  0.000000  1.000000  0.000000        0.00000            
 350   BIOMT3   1  0.000000  0.000000  1.000000        0.00000            
 350                                                                      
 350 BIOMOLECULE: 2                                                       
 350 AUTHOR DETERMINED BIOLOGICAL UNIT: MONOMERIC                         
 350 APPLY THE FOLLOWING TO CHAINS: B                                     
 350   BIOMT1   1  1.000000  0.000000  0.000000        0.00000            
 350   BIOMT2   1  0.000000  1.000000  0.000000        0.00000            
 350   BIOMT3   1  0.000000  0.000000  1.000000        0.00000            
 350                                                                      
 350 BIOMOLECULE: 3                                                       
 350 AUTHOR DETERMINED BIOLOGICAL UNIT: MONOMERIC                         
 350 APPLY THE FOLLOWING TO CHAINS: C                                     
 350   BIOMT1   1  1.000000  0.000000  0.000000        0.00000            
 350   BIOMT2   1  0.000000  1.000000  0.000000        0.00000            
 350   BIOMT3   1  0.000000  0.000000  1.000000        0.00000            
 350                                                                      
 350 BIOMOLECULE: 4                                                       
 350 AUTHOR DETERMINED BIOLOGICAL UNIT: MONOMERIC                         
 350 APPLY THE FOLLOWING TO CHAINS: D                                     
 350   BIOMT1   1  1.000000  0.000000  0.000000        0.00000            
 350   BIOMT2   1  0.000000  1.000000  0.000000        0.00000            
 350   BIOMT3   1  0.000000  0.000000  1.000000        0.00000            
 465                                                                      
 465 MISSING RESIDUES                                                     
 465 THE FOLLOWING RESIDUES WERE NOT LOCATED IN THE                       
 465 EXPERIMENT. (M=MODEL NUMBER; RES=RESIDUE NAME; C=CHAIN               
 465 IDENTIFIER; SSSEQ=SEQUENCE NUMBER; I=INSERTION CODE.)                
 465                                                                      
 465   M RES C SSSEQI                                                     
 465     SER B    25                                                      
 465     THR B    26                                                      
 465     SER C    25                                                      
 465     THR C    26                                                      
 465     ASN C    27                                                      
 465     LEU C    28                                                      
 465     VAL C    29                                                      
 465     ALA C    30                                                      
 465     GLU C    31                                                      
 470                                                                      
 470 MISSING ATOM                                                         
 470 THE FOLLOWING RESIDUES HAVE MISSING ATOMS (M=MODEL NUMBER;           
 470 RES=RESIDUE NAME; C=CHAIN IDENTIFIER; SSEQ=SEQUENCE NUMBER;          
 470 I=INSERTION CODE):                                                   
 470   M RES CSSEQI  ATOMS                                                
 470     LYS A  35    CD   CE   NZ                                        
 470     GLY A 291    CA   C    O                                         
 470     GLY B 291    CA   C    O                                         
 470     GLY C 291    CA   C    O                                         
 470     LYS D  35    CE   NZ                                             
 470     GLY D 291    CA   C    O                                         
 500                                                                      
 500 GEOMETRY AND STEREOCHEMISTRY                                         
 500 SUBTOPIC: CLOSE CONTACTS IN SAME ASYMMETRIC UNIT                     
 500                                                                      
 500 THE FOLLOWING ATOMS ARE IN CLOSE CONTACT.                            
 500                                                                      
 500  ATM1  RES C  SSEQI   ATM2  RES C  SSEQI           DISTANCE          
 500   O    HOH B   402     O    HOH B   404              1.39            
 500   O    HOH B   546     O    HOH B   557              1.46            
 500   OG   SER B    70     B9   BX9 B   301              1.73            
 500   OG   SER A    70     B9   BX9 A   301              1.75            
 500   OG1  THR C   235     O    ACY C   303              1.79            
 500   OG1  THR A   235     O    ACY A   304              1.79            
 500   N    GLY A   291     OXT  ACT A   302              1.86            
 500   OG1  THR B   235     OXT  ACY B   303              1.86            
 500   OG   SER D    70     B9   BX9 D   301              1.88            
 500   OG   SER C    70     B9   BX9 C   301              1.88            
 500   O    HOH B   538     O    HOH B   586              1.96            
 500   O    HOH A   508     O    HOH A   545              1.96            
 500   O    HOH B   526     O    HOH B   551              2.00            
 500   O    HOH B   470     O    HOH B   518              2.08            
 500   O    HOH A   482     O    HOH A   550              2.08            
 500   OG1  THR A   237     OXT  ACY A   304              2.10            
 500   NH1  ARG B   284     O    HOH B   401              2.11            
 500   O    HOH C   494     O    HOH C   504              2.11            
 500   OD1  ASP A   271     O    HOH A   401              2.11            
 500   O    HOH B   431     O    HOH D   487              2.11            
 500   OG1  THR D   235     OXT  ACY D   303              2.14            
 500   S7   BX9 B   301     O    HOH B   575              2.15            
 500   O    HOH B   561     O    HOH B   591              2.17            
 500   OG   SER A   109     OD1  ASP A   131              2.18            
 500                                                                      
 500 REMARK: NULL                                                         
 500                                                                      
 500 GEOMETRY AND STEREOCHEMISTRY                                         
 500 SUBTOPIC: CLOSE CONTACTS                                             
 500                                                                      
 500 THE FOLLOWING ATOMS THAT ARE RELATED BY CRYSTALLOGRAPHIC             
 500 SYMMETRY ARE IN CLOSE CONTACT.  AN ATOM LOCATED WITHIN 0.15          
 500 ANGSTROMS OF A SYMMETRY RELATED ATOM IS ASSUMED TO BE ON A           
 500 SPECIAL POSITION AND IS, THEREFORE, LISTED IN REMARK 375             
 500 INSTEAD OF REMARK 500.  ATOMS WITH NON-BLANK ALTERNATE               
 500 LOCATION INDICATORS ARE NOT INCLUDED IN THE CALCULATIONS.            
 500                                                                      
 500 DISTANCE CUTOFF:                                                     
 500 2.2 ANGSTROMS FOR CONTACTS NOT INVOLVING HYDROGEN ATOMS              
 500 1.6 ANGSTROMS FOR CONTACTS INVOLVING HYDROGEN ATOMS                  
 500                                                                      
 500  ATM1  RES C  SSEQI   ATM2  RES C  SSEQI  SSYMOP   DISTANCE          
 500   O    HOH A   508     O    HOH B   550     4648     1.67            
 500   O    HOH A   545     O    HOH B   554     4648     2.18            
 500                                                                      
 500 REMARK: NULL                                                         
 500                                                                      
 500 GEOMETRY AND STEREOCHEMISTRY                                         
 500 SUBTOPIC: COVALENT BOND ANGLES                                       
 500                                                                      
 500 THE STEREOCHEMICAL PARAMETERS OF THE FOLLOWING RESIDUES              
 500 HAVE VALUES WHICH DEVIATE FROM EXPECTED VALUES BY MORE               
 500 THAN 6*RMSD (M=MODEL NUMBER; RES=RESIDUE NAME; C=CHAIN               
 500 IDENTIFIER; SSEQ=SEQUENCE NUMBER; I=INSERTION CODE).                 
 500                                                                      
 500 STANDARD TABLE:                                                      
 500 FORMAT: (10X,I3,1X,A3,1X,A1,I4,A1,3(1X,A4,2X),12X,F5.1)              
 500                                                                      
 500 EXPECTED VALUES PROTEIN: ENGH AND HUBER, 1999                        
 500 EXPECTED VALUES NUCLEIC ACID: CLOWNEY ET AL 1996                     
 500                                                                      
 500  M RES CSSEQI ATM1   ATM2   ATM3                                     
 500    ARG A 266   NE  -  CZ  -  NH2 ANGL. DEV. =  -3.6 DEGREES          
 500                                                                      
 500 REMARK: NULL                                                         
 500                                                                      
 500 GEOMETRY AND STEREOCHEMISTRY                                         
 500 SUBTOPIC: TORSION ANGLES                                             
 500                                                                      
 500 TORSION ANGLES OUTSIDE THE EXPECTED RAMACHANDRAN REGIONS:            
 500 (M=MODEL NUMBER; RES=RESIDUE NAME; C=CHAIN IDENTIFIER;               
 500 SSEQ=SEQUENCE NUMBER; I=INSERTION CODE).                             
 500                                                                      
 500 STANDARD TABLE:                                                      
 500 FORMAT:(10X,I3,1X,A3,1X,A1,I4,A1,4X,F7.2,3X,F7.2)                    
 500                                                                      
 500 EXPECTED VALUES: GJ KLEYWEGT AND TA JONES (1996). PHI/PSI-           
 500 CHOLOGY: RAMACHANDRAN REVISITED. STRUCTURE 4, 1395 - 1400            
 500                                                                      
 500  M RES CSSEQI        PSI       PHI                                   
 500    ASN A  27      110.85   -162.74                                   
 500    TYR A  60      115.30   -163.73                                   
 500    CYS A  69     -142.54     47.09                                   
 500    ARG A 220     -117.88   -113.63                                   
 500    CYS B  69     -140.26     45.41                                   
 500    ARG B 220     -124.33   -113.81                                   
 500    CYS C  69     -142.44     47.11                                   
 500    ARG C 220     -124.06   -114.34                                   
 500    VAL D  29       -2.57   -144.50                                   
 500    CYS D  69     -146.77     48.13                                   
 500    GLN D  87       86.08   -163.60                                   
 500    ARG D 220     -121.41   -119.18                                   
 500                                                                      
 500 REMARK: NULL                                                         
 525                                                                      
 525 SOLVENT                                                              
 525                                                                      
 525 THE SOLVENT MOLECULES HAVE CHAIN IDENTIFIERS THAT                    
 525 INDICATE THE POLYMER CHAIN WITH WHICH THEY ARE MOST                  
 525 CLOSELY ASSOCIATED. THE REMARK LISTS ALL THE SOLVENT                 
 525 MOLECULES WHICH ARE MORE THAN 5A AWAY FROM THE                       
 525 NEAREST POLYMER CHAIN (M = MODEL NUMBER;                             
 525 RES=RESIDUE NAME; C=CHAIN IDENTIFIER; SSEQ=SEQUENCE                  
 525 NUMBER; I=INSERTION CODE):                                           
 525                                                                      
 525  M RES CSSEQI                                                        
 525    HOH A 600        DISTANCE =  5.83 ANGSTROMS                       
 525    HOH B 613        DISTANCE =  5.85 ANGSTROMS                       
 800                                                                      
 800 SITE                                                                 
 800 SITE_IDENTIFIER: AC1                                                 
 800 EVIDENCE_CODE: SOFTWARE                                              
 800 SITE_DESCRIPTION: binding site for residue BX9 A 301                 
 800                                                                      
 800 SITE_IDENTIFIER: AC2                                                 
 800 EVIDENCE_CODE: SOFTWARE                                              
 800 SITE_DESCRIPTION: binding site for residue ACT A 302                 
 800                                                                      
 800 SITE_IDENTIFIER: AC3                                                 
 800 EVIDENCE_CODE: SOFTWARE                                              
 800 SITE_DESCRIPTION: binding site for residue ACY A 303                 
 800                                                                      
 800 SITE_IDENTIFIER: AC4                                                 
 800 EVIDENCE_CODE: SOFTWARE                                              
 800 SITE_DESCRIPTION: binding site for residue ACY A 304                 
 800                                                                      
 800 SITE_IDENTIFIER: AC5                                                 
 800 EVIDENCE_CODE: SOFTWARE                                              
 800 SITE_DESCRIPTION: binding site for residue PEG A 305                 
 800                                                                      
 800 SITE_IDENTIFIER: AC6                                                 
 800 EVIDENCE_CODE: SOFTWARE                                              
 800 SITE_DESCRIPTION: binding site for residue PEG A 306                 
 800                                                                      
 800 SITE_IDENTIFIER: AC7                                                 
 800 EVIDENCE_CODE: SOFTWARE                                              
 800 SITE_DESCRIPTION: binding site for residue BX9 B 301                 
 800                                                                      
 800 SITE_IDENTIFIER: AC8                                                 
 800 EVIDENCE_CODE: SOFTWARE                                              
 800 SITE_DESCRIPTION: binding site for residue ACT B 302                 
 800                                                                      
 800 SITE_IDENTIFIER: AC9                                                 
 800 EVIDENCE_CODE: SOFTWARE                                              
 800 SITE_DESCRIPTION: binding site for residue ACY B 303                 
 800                                                                      
 800 SITE_IDENTIFIER: AD1                                                 
 800 EVIDENCE_CODE: SOFTWARE                                              
 800 SITE_DESCRIPTION: binding site for residue PEG B 304                 
 800                                                                      
 800 SITE_IDENTIFIER: AD2                                                 
 800 EVIDENCE_CODE: SOFTWARE                                              
 800 SITE_DESCRIPTION: binding site for residue PEG B 305                 
 800                                                                      
 800 SITE_IDENTIFIER: AD3                                                 
 800 EVIDENCE_CODE: SOFTWARE                                              
 800 SITE_DESCRIPTION: binding site for residue PEG B 306                 
 800                                                                      
 800 SITE_IDENTIFIER: AD4                                                 
 800 EVIDENCE_CODE: SOFTWARE                                              
 800 SITE_DESCRIPTION: binding site for residue PEG B 307                 
 800                                                                      
 800 SITE_IDENTIFIER: AD5                                                 
 800 EVIDENCE_CODE: SOFTWARE                                              
 800 SITE_DESCRIPTION: binding site for residue BX9 C 301                 
 800                                                                      
 800 SITE_IDENTIFIER: AD6                                                 
 800 EVIDENCE_CODE: SOFTWARE                                              
 800 SITE_DESCRIPTION: binding site for residue ACT C 302                 
 800                                                                      
 800 SITE_IDENTIFIER: AD7                                                 
 800 EVIDENCE_CODE: SOFTWARE                                              
 800 SITE_DESCRIPTION: binding site for residue ACY C 303                 
 800                                                                      
 800 SITE_IDENTIFIER: AD8                                                 
 800 EVIDENCE_CODE: SOFTWARE                                              
 800 SITE_DESCRIPTION: binding site for residue PEG C 304                 
 800                                                                      
 800 SITE_IDENTIFIER: AD9                                                 
 800 EVIDENCE_CODE: SOFTWARE                                              
 800 SITE_DESCRIPTION: binding site for residue PEG C 305                 
 800                                                                      
 800 SITE_IDENTIFIER: AE1                                                 
 800 EVIDENCE_CODE: SOFTWARE                                              
 800 SITE_DESCRIPTION: binding site for residue BX9 D 301                 
 800                                                                      
 800 SITE_IDENTIFIER: AE2                                                 
 800 EVIDENCE_CODE: SOFTWARE                                              
 800 SITE_DESCRIPTION: binding site for residue ACT D 302                 
 800                                                                      
 800 SITE_IDENTIFIER: AE3                                                 
 800 EVIDENCE_CODE: SOFTWARE                                              
 800 SITE_DESCRIPTION: binding site for residue ACY D 303                 

>  <DBREF>
 6JN4 A   26   291  UNP    Q93LQ9   Q93LQ9_KLEPN    26    289             
 6JN4 B   26   291  UNP    Q93LQ9   Q93LQ9_KLEPN    26    289             
 6JN4 C   26   291  UNP    Q93LQ9   Q93LQ9_KLEPN    26    289             
 6JN4 D   26   291  UNP    Q93LQ9   Q93LQ9_KLEPN    26    289             

>  <SEQADV>
 6JN4 SER A   25  UNP  Q93LQ9              EXPRESSION TAG                 
 6JN4 SER B   25  UNP  Q93LQ9              EXPRESSION TAG                 
 6JN4 SER C   25  UNP  Q93LQ9              EXPRESSION TAG                 
 6JN4 SER D   25  UNP  Q93LQ9              EXPRESSION TAG                 

>  <SEQRES>
   1 A  265  SER THR ASN LEU VAL ALA GLU PRO PHE ALA LYS LEU GLU          
   2 A  265  GLN ASP PHE GLY GLY SER ILE GLY VAL TYR ALA MET ASP          
   3 A  265  THR GLY SER GLY ALA THR VAL SER TYR ARG ALA GLU GLU          
   4 A  265  ARG PHE PRO LEU CYS SER SER PHE LYS GLY PHE LEU ALA          
   5 A  265  ALA ALA VAL LEU ALA ARG SER GLN GLN GLN ALA GLY LEU          
   6 A  265  LEU ASP THR PRO ILE ARG TYR GLY LYS ASN ALA LEU VAL          
   7 A  265  PRO TRP SER PRO ILE SER GLU LYS TYR LEU THR THR GLY          
   8 A  265  MET THR VAL ALA GLU LEU SER ALA ALA ALA VAL GLN TYR          
   9 A  265  SER ASP ASN ALA ALA ALA ASN LEU LEU LEU LYS GLU LEU          
  10 A  265  GLY GLY PRO ALA GLY LEU THR ALA PHE MET ARG SER ILE          
  11 A  265  GLY ASP THR THR PHE ARG LEU ASP ARG TRP GLU LEU GLU          
  12 A  265  LEU ASN SER ALA ILE PRO GLY ASP ALA ARG ASP THR SER          
  13 A  265  SER PRO ARG ALA VAL THR GLU SER LEU GLN LYS LEU THR          
  14 A  265  LEU GLY SER ALA LEU ALA ALA PRO GLN ARG GLN GLN PHE          
  15 A  265  VAL ASP TRP LEU LYS GLY ASN THR THR GLY ASN HIS ARG          
  16 A  265  ILE ARG ALA ALA VAL PRO ALA ASP TRP ALA VAL GLY ASP          
  17 A  265  LYS THR GLY THR CYS GLY VAL TYR GLY THR ALA ASN ASP          
  18 A  265  TYR ALA VAL VAL TRP PRO THR GLY ARG ALA PRO ILE VAL          
  19 A  265  LEU ALA VAL TYR THR ARG ALA PRO ASN LYS ASP ASP LYS          
  20 A  265  HIS SER GLU ALA VAL ILE ALA ALA ALA ALA ARG LEU ALA          
  21 A  265  LEU GLU GLY LEU GLY                                          
   1 B  265  SER THR ASN LEU VAL ALA GLU PRO PHE ALA LYS LEU GLU          
   2 B  265  GLN ASP PHE GLY GLY SER ILE GLY VAL TYR ALA MET ASP          
   3 B  265  THR GLY SER GLY ALA THR VAL SER TYR ARG ALA GLU GLU          
   4 B  265  ARG PHE PRO LEU CYS SER SER PHE LYS GLY PHE LEU ALA          
   5 B  265  ALA ALA VAL LEU ALA ARG SER GLN GLN GLN ALA GLY LEU          
   6 B  265  LEU ASP THR PRO ILE ARG TYR GLY LYS ASN ALA LEU VAL          
   7 B  265  PRO TRP SER PRO ILE SER GLU LYS TYR LEU THR THR GLY          
   8 B  265  MET THR VAL ALA GLU LEU SER ALA ALA ALA VAL GLN TYR          
   9 B  265  SER ASP ASN ALA ALA ALA ASN LEU LEU LEU LYS GLU LEU          
  10 B  265  GLY GLY PRO ALA GLY LEU THR ALA PHE MET ARG SER ILE          
  11 B  265  GLY ASP THR THR PHE ARG LEU ASP ARG TRP GLU LEU GLU          
  12 B  265  LEU ASN SER ALA ILE PRO GLY ASP ALA ARG ASP THR SER          
  13 B  265  SER PRO ARG ALA VAL THR GLU SER LEU GLN LYS LEU THR          
  14 B  265  LEU GLY SER ALA LEU ALA ALA PRO GLN ARG GLN GLN PHE          
  15 B  265  VAL ASP TRP LEU LYS GLY ASN THR THR GLY ASN HIS ARG          
  16 B  265  ILE ARG ALA ALA VAL PRO ALA ASP TRP ALA VAL GLY ASP          
  17 B  265  LYS THR GLY THR CYS GLY VAL TYR GLY THR ALA ASN ASP          
  18 B  265  TYR ALA VAL VAL TRP PRO THR GLY ARG ALA PRO ILE VAL          
  19 B  265  LEU ALA VAL TYR THR ARG ALA PRO ASN LYS ASP ASP LYS          
  20 B  265  HIS SER GLU ALA VAL ILE ALA ALA ALA ALA ARG LEU ALA          
  21 B  265  LEU GLU GLY LEU GLY                                          
   1 C  265  SER THR ASN LEU VAL ALA GLU PRO PHE ALA LYS LEU GLU          
   2 C  265  GLN ASP PHE GLY GLY SER ILE GLY VAL TYR ALA MET ASP          
   3 C  265  THR GLY SER GLY ALA THR VAL SER TYR ARG ALA GLU GLU          
   4 C  265  ARG PHE PRO LEU CYS SER SER PHE LYS GLY PHE LEU ALA          
   5 C  265  ALA ALA VAL LEU ALA ARG SER GLN GLN GLN ALA GLY LEU          
   6 C  265  LEU ASP THR PRO ILE ARG TYR GLY LYS ASN ALA LEU VAL          
   7 C  265  PRO TRP SER PRO ILE SER GLU LYS TYR LEU THR THR GLY          
   8 C  265  MET THR VAL ALA GLU LEU SER ALA ALA ALA VAL GLN TYR          
   9 C  265  SER ASP ASN ALA ALA ALA ASN LEU LEU LEU LYS GLU LEU          
  10 C  265  GLY GLY PRO ALA GLY LEU THR ALA PHE MET ARG SER ILE          
  11 C  265  GLY ASP THR THR PHE ARG LEU ASP ARG TRP GLU LEU GLU          
  12 C  265  LEU ASN SER ALA ILE PRO GLY ASP ALA ARG ASP THR SER          
  13 C  265  SER PRO ARG ALA VAL THR GLU SER LEU GLN LYS LEU THR          
  14 C  265  LEU GLY SER ALA LEU ALA ALA PRO GLN ARG GLN GLN PHE          
  15 C  265  VAL ASP TRP LEU LYS GLY ASN THR THR GLY ASN HIS ARG          
  16 C  265  ILE ARG ALA ALA VAL PRO ALA ASP TRP ALA VAL GLY ASP          
  17 C  265  LYS THR GLY THR CYS GLY VAL TYR GLY THR ALA ASN ASP          
  18 C  265  TYR ALA VAL VAL TRP PRO THR GLY ARG ALA PRO ILE VAL          
  19 C  265  LEU ALA VAL TYR THR ARG ALA PRO ASN LYS ASP ASP LYS          
  20 C  265  HIS SER GLU ALA VAL ILE ALA ALA ALA ALA ARG LEU ALA          
  21 C  265  LEU GLU GLY LEU GLY                                          
   1 D  265  SER THR ASN LEU VAL ALA GLU PRO PHE ALA LYS LEU GLU          
   2 D  265  GLN ASP PHE GLY GLY SER ILE GLY VAL TYR ALA MET ASP          
   3 D  265  THR GLY SER GLY ALA THR VAL SER TYR ARG ALA GLU GLU          
   4 D  265  ARG PHE PRO LEU CYS SER SER PHE LYS GLY PHE LEU ALA          
   5 D  265  ALA ALA VAL LEU ALA ARG SER GLN GLN GLN ALA GLY LEU          
   6 D  265  LEU ASP THR PRO ILE ARG TYR GLY LYS ASN ALA LEU VAL          
   7 D  265  PRO TRP SER PRO ILE SER GLU LYS TYR LEU THR THR GLY          
   8 D  265  MET THR VAL ALA GLU LEU SER ALA ALA ALA VAL GLN TYR          
   9 D  265  SER ASP ASN ALA ALA ALA ASN LEU LEU LEU LYS GLU LEU          
  10 D  265  GLY GLY PRO ALA GLY LEU THR ALA PHE MET ARG SER ILE          
  11 D  265  GLY ASP THR THR PHE ARG LEU ASP ARG TRP GLU LEU GLU          
  12 D  265  LEU ASN SER ALA ILE PRO GLY ASP ALA ARG ASP THR SER          
  13 D  265  SER PRO ARG ALA VAL THR GLU SER LEU GLN LYS LEU THR          
  14 D  265  LEU GLY SER ALA LEU ALA ALA PRO GLN ARG GLN GLN PHE          
  15 D  265  VAL ASP TRP LEU LYS GLY ASN THR THR GLY ASN HIS ARG          
  16 D  265  ILE ARG ALA ALA VAL PRO ALA ASP TRP ALA VAL GLY ASP          
  17 D  265  LYS THR GLY THR CYS GLY VAL TYR GLY THR ALA ASN ASP          
  18 D  265  TYR ALA VAL VAL TRP PRO THR GLY ARG ALA PRO ILE VAL          
  19 D  265  LEU ALA VAL TYR THR ARG ALA PRO ASN LYS ASP ASP LYS          
  20 D  265  HIS SER GLU ALA VAL ILE ALA ALA ALA ALA ARG LEU ALA          
  21 D  265  LEU GLU GLY LEU GLY                                          

>  <HET>
 BX9  A 301      18                                                       
 ACT  A 302       4                                                       
 ACY  A 303       4                                                       
 ACY  A 304       4                                                       
 PEG  A 305       7                                                       
 PEG  A 306       7                                                       
 BX9  B 301      18                                                       
 ACT  B 302       4                                                       
 ACY  B 303       4                                                       
 PEG  B 304       7                                                       
 PEG  B 305       7                                                       
 PEG  B 306       7                                                       
 PEG  B 307       7                                                       
 BX9  C 301      18                                                       
 ACT  C 302       4                                                       
 ACY  C 303       4                                                       
 PEG  C 304       7                                                       
 PEG  C 305       7                                                       
 BX9  D 301      18                                                       
 ACT  D 302       4                                                       
 ACY  D 303       4                                                       

>  <HETNAM>
     BX9 [(R)-(4-FLUOROPHENYL)-[[(2S)-2-METHYL-3-SULFANYL-                
   2 BX9  PROPANOYL]AMINO]METHYL]BORONIC ACID                             
     ACT ACETATE ION                                                      
     ACY ACETIC ACID                                                      
     PEG DI(HYDROXYETHYL)ETHER                                            

>  <FORMUL>
   5  BX9    4(C11 H15 B F N O3 S)                                        
   6  ACT    4(C2 H3 O2 1-)                                               
   7  ACY    5(C2 H4 O2)                                                  
   9  PEG    8(C4 H10 O3)                                                 
  26  HOH   *657(H2 O)                                                    

>  <HELIX>
   1 AA1 ALA A   30  GLY A   41  1                                  12    
   2 AA2 SER A   71  GLN A   85  1                                  15    
   3 AA3 GLY A   98  LEU A  102  5                                   5    
   4 AA4 SER A  106  TYR A  112  1                                   7    
   5 AA5 VAL A  119  SER A  130  1                                  12    
   6 AA6 ASP A  131  LEU A  142  1                                  12    
   7 AA7 GLY A  143  ILE A  155  1                                  13    
   8 AA8 LEU A  167  SER A  171  5                                   5    
   9 AA9 SER A  182  LEU A  195  1                                  14    
  10 AB1 ALA A  200  GLY A  213  1                                  14    
  11 AB2 ARG A  220  VAL A  225  5                                   6    
  12 AB3 SER A  275  LEU A  290  1                                  16    
  13 AB4 VAL B   29  GLY B   41  1                                  13    
  14 AB5 SER B   71  GLN B   85  1                                  15    
  15 AB6 GLY B   89  ASP B   92  5                                   4    
  16 AB7 GLY B   98  LEU B  102  5                                   5    
  17 AB8 SER B  106  TYR B  112  1                                   7    
  18 AB9 VAL B  119  TYR B  129  1                                  11    
  19 AC1 ASP B  131  LEU B  142  1                                  12    
  20 AC2 GLY B  143  ILE B  155  1                                  13    
  21 AC3 LEU B  167  SER B  171  5                                   5    
  22 AC4 SER B  182  LEU B  195  1                                  14    
  23 AC5 ALA B  200  GLY B  213  1                                  14    
  24 AC6 ARG B  220  VAL B  225  5                                   6    
  25 AC7 SER B  275  LEU B  290  1                                  16    
  26 AC8 PHE C   33  GLY C   41  1                                   9    
  27 AC9 SER C   71  GLN C   85  1                                  15    
  28 AD1 GLY C   89  ASP C   92  5                                   4    
  29 AD2 GLY C   98  LEU C  102  5                                   5    
  30 AD3 SER C  106  TYR C  112  1                                   7    
  31 AD4 VAL C  119  SER C  130  1                                  12    
  32 AD5 ASP C  131  LEU C  142  1                                  12    
  33 AD6 GLY C  143  ILE C  155  1                                  13    
  34 AD7 LEU C  167  SER C  171  5                                   5    
  35 AD8 SER C  182  LEU C  195  1                                  14    
  36 AD9 ALA C  200  GLY C  213  1                                  14    
  37 AE1 ARG C  220  VAL C  225  5                                   6    
  38 AE2 SER C  275  LEU C  290  1                                  16    
  39 AE3 VAL D   29  GLY D   41  1                                  13    
  40 AE4 SER D   71  GLN D   86  1                                  16    
  41 AE5 GLY D   89  ASP D   92  5                                   4    
  42 AE6 GLY D   98  LEU D  102  5                                   5    
  43 AE7 SER D  106  TYR D  112  1                                   7    
  44 AE8 VAL D  119  SER D  130  1                                  12    
  45 AE9 ASP D  131  LEU D  142  1                                  12    
  46 AF1 GLY D  143  ILE D  155  1                                  13    
  47 AF2 LEU D  167  SER D  171  5                                   5    
  48 AF3 SER D  182  LEU D  195  1                                  14    
  49 AF4 ALA D  200  GLY D  213  1                                  14    
  50 AF5 ARG D  220  VAL D  225  5                                   6    
  51 AF6 SER D  275  LEU D  290  1                                  16    

>  <SHEET>
   1 AA1 5 THR A  56  TYR A  60  0                                        
   2 AA1 5 SER A  43  ASP A  50 -1  N  VAL A  46   O  TYR A  60           
   3 AA1 5 ILE A 259  ARG A 266 -1  O  ARG A 266   N  SER A  43           
   4 AA1 5 ALA A 244  TRP A 251 -1  N  VAL A 250   O  ILE A 259           
   5 AA1 5 ALA A 230  THR A 237 -1  N  GLY A 236   O  ASN A 245           
   1 AA2 2 PHE A  66  PRO A  67  0                                        
   2 AA2 2 THR A 180  SER A 181 -1  O  SER A 181   N  PHE A  66           
   1 AA3 2 PRO A  94  ILE A  95  0                                        
   2 AA3 2 MET A 117  THR A 118 -1  O  MET A 117   N  ILE A  95           
   1 AA4 5 THR B  56  TYR B  60  0                                        
   2 AA4 5 SER B  43  ASP B  50 -1  N  VAL B  46   O  TYR B  60           
   3 AA4 5 ILE B 259  ARG B 266 -1  O  TYR B 264   N  GLY B  45           
   4 AA4 5 ALA B 244  TRP B 251 -1  N  ASP B 246   O  VAL B 263           
   5 AA4 5 ALA B 230  THR B 237 -1  N  ALA B 230   O  TRP B 251           
   1 AA5 2 PHE B  66  PRO B  67  0                                        
   2 AA5 2 THR B 180  SER B 181 -1  O  SER B 181   N  PHE B  66           
   1 AA6 2 PRO B  94  ILE B  95  0                                        
   2 AA6 2 MET B 117  THR B 118 -1  O  MET B 117   N  ILE B  95           
   1 AA7 5 THR C  56  TYR C  60  0                                        
   2 AA7 5 SER C  43  ASP C  50 -1  N  VAL C  46   O  TYR C  60           
   3 AA7 5 ILE C 259  ARG C 266 -1  O  TYR C 264   N  GLY C  45           
   4 AA7 5 ALA C 244  TRP C 251 -1  N  VAL C 250   O  ILE C 259           
   5 AA7 5 ALA C 230  THR C 237 -1  N  ALA C 230   O  TRP C 251           
   1 AA8 2 PHE C  66  PRO C  67  0                                        
   2 AA8 2 THR C 180  SER C 181 -1  O  SER C 181   N  PHE C  66           
   1 AA9 2 PRO C  94  ILE C  95  0                                        
   2 AA9 2 MET C 117  THR C 118 -1  O  MET C 117   N  ILE C  95           
   1 AB1 5 THR D  56  TYR D  60  0                                        
   2 AB1 5 SER D  43  ASP D  50 -1  N  VAL D  46   O  TYR D  60           
   3 AB1 5 ILE D 259  ARG D 266 -1  O  TYR D 264   N  GLY D  45           
   4 AB1 5 ALA D 244  TRP D 251 -1  N  ASP D 246   O  VAL D 263           
   5 AB1 5 ALA D 230  THR D 237 -1  N  ALA D 230   O  TRP D 251           
   1 AB2 2 PHE D  66  PRO D  67  0                                        
   2 AB2 2 THR D 180  SER D 181 -1  O  SER D 181   N  PHE D  66           
   1 AB3 2 PRO D  94  ILE D  95  0                                        
   2 AB3 2 MET D 117  THR D 118 -1  O  MET D 117   N  ILE D  95           

>  <SSBOND>
   1 CYS A   69    CYS A  238                          1555   1555  2.06  
   2 CYS B   69    CYS B  238                          1555   1555  2.07  
   3 CYS C   69    CYS C  238                          1555   1555  2.06  
   4 CYS D   69    CYS D  238                          1555   1555  2.05  

>  <CISPEP>
   1 GLU A  166    LEU A  167          0         0.86                     
   2 GLU B  166    LEU B  167          0         3.49                     
   3 GLU C  166    LEU C  167          0         9.92                     
   4 GLU D  166    LEU D  167          0         4.54                     

>  <SITE>
   1 AC1 12 CYS A  69  SER A  70  LYS A  73  TRP A 105                    
   2 AC1 12 SER A 130  ASN A 132  GLU A 166  ASN A 170                    
   3 AC1 12 THR A 237  CYS A 238  ACY A 304  HOH A 598                    
   1 AC2  7 ARG A 256  LEU A 290  GLY A 291  HOH A 425                    
   2 AC2  7 HOH A 525  ARG C 164  ARG C 178                               
   1 AC3  4 SER A 275  GLU A 276  ALA A 277  LYS D 273                    
   1 AC4  8 SER A  70  SER A 130  THR A 216  THR A 235                    
   2 AC4  8 GLY A 236  THR A 237  BX9 A 301  HOH A 450                    
   1 AC5  2 LYS A 140  PEG A 306                                          
   1 AC6  3 VAL A 103  TRP A 165  PEG A 305                               
   1 AC7 13 CYS B  69  SER B  70  TRP B 105  SER B 130                    
   2 AC7 13 ASN B 132  GLU B 166  LEU B 167  ASN B 170                    
   3 AC7 13 THR B 237  CYS B 238  ACY B 303  HOH B 401                    
   4 AC7 13 HOH B 575                                                     
   1 AC8  5 SER B 275  GLU B 276  ALA B 277  HOH B 448                    
   2 AC8  5 HOH B 505                                                     
   1 AC9  9 SER B  70  SER B 130  THR B 216  LYS B 234                    
   2 AC9  9 THR B 235  GLY B 236  THR B 237  BX9 B 301                    
   3 AC9  9 HOH B 408                                                     
   1 AD1  4 GLN B 191  LYS B 192  PEG B 305  HOH B 510                    
   1 AD2  5 THR B  51  PEG B 304  HOH B 402  HOH B 404                    
   2 AD2  5 HOH B 509                                                     
   1 AD3  3 ASN B 218  VAL B 225  PEG B 307                               
   1 AD4  3 LYS B 111  TYR B 129  PEG B 306                               
   1 AD5 10 CYS C  69  SER C  70  LYS C  73  SER C 130                    
   2 AD5 10 ASN C 132  GLU C 166  ASN C 170  THR C 237                    
   3 AD5 10 CYS C 238  ACY C 303                                          
   1 AD6  3 SER C 275  GLU C 276  ALA C 277                               
   1 AD7  9 SER C  70  SER C 130  THR C 216  ARG C 220                    
   2 AD7  9 LYS C 234  THR C 235  GLY C 236  THR C 237                    
   3 AD7  9 BX9 C 301                                                     
   1 AD8  3 ALA B  88  GLN C  85  HOH C 473                               
   1 AD9  5 MET C  49  GLN C 191  HOH C 407  HOH C 469                    
   2 AD9  5 ASN D 100                                                     
   1 AE1 12 CYS D  69  SER D  70  LYS D  73  TRP D 105                    
   2 AE1 12 SER D 130  ASN D 132  GLU D 166  ASN D 170                    
   3 AE1 12 THR D 237  CYS D 238  ACY D 303  HOH D 508                    
   1 AE2  2 GLU D 276  ALA D 277                                          
   1 AE3  6 SER D  70  SER D 130  LYS D 234  THR D 235                    
   2 AE3  6 THR D 237  BX9 D 301                                          

>  <ORIGX1>
      1.000000  0.000000  0.000000        0.00000                         

>  <ORIGX2>
      0.000000  1.000000  0.000000        0.00000                         

>  <ORIGX3>
      0.000000  0.000000  1.000000        0.00000                         

>  <SCALE1>
      0.006069  0.003504  0.000000        0.00000                         

>  <SCALE2>
      0.000000  0.007007  0.000000        0.00000                         

>  <SCALE3>
      0.000000  0.000000  0.010562        0.00000                         

>  <MASTER>
      458    0   21   51   36    0   40    6 8649    4  172   84          

$$$$
