start_structures/Ligand_Substrate/Ligand_Complex_Stripped/BZB_4BD0.pdb
 OpenBabel08222315203D

 22 23  0  0  1  0  0  0  0  0999 V2000
   37.7600  -16.0410    6.1630 N   0  0  0  0  0  0  0  0  0  0  0  0
   37.6800  -17.4970    6.1550 C   0  0  2  0  0  0  0  0  0  0  0  0
   36.4570  -18.0600    5.4640 C   0  0  0  0  0  0  0  0  0  0  0  0
   36.3990  -19.2720    5.2700 O   0  0  0  0  0  0  0  0  0  0  0  0
   37.7540  -18.0650    7.5810 C   0  0  0  0  0  0  0  0  0  0  0  0
   39.0200  -17.8210    8.1580 O   0  0  0  0  0  0  0  0  0  0  0  0
   37.6440  -15.6760    6.9330 H   0  0  0  0  0  0  0  0  0  0  0  0
   38.4610  -17.8370    5.6710 H   0  0  0  0  0  0  0  0  0  0  0  0
   37.0720  -17.6410    8.1250 H   0  0  0  0  0  0  0  0  0  0  0  0
   37.6020  -19.0220    7.5470 H   0  0  0  0  0  0  0  0  0  0  0  0
   39.0010  -16.9710    9.3560 B   0  0  0  0  0  0  0  0  0  0  0  0
   38.0980  -17.6210   10.3120 O   0  0  0  0  0  0  0  0  0  0  0  0
   38.5410  -15.6600    8.9060 O   0  0  0  0  0  0  0  0  0  0  0  0
   40.4300  -16.8310    9.9780 C   0  0  0  0  0  0  0  0  0  0  0  0
   41.4790  -15.9790    9.7370 C   0  0  0  0  0  0  0  0  0  0  0  0
   42.4810  -16.8520   11.5750 C   0  0  0  0  0  0  0  0  0  0  0  0
   42.5690  -15.9370   10.5260 C   0  0  0  0  0  0  0  0  0  0  0  0
   43.4770  -16.9970   12.5130 C   0  0  0  0  0  0  0  0  0  0  0  0
   40.9650  -17.6710   11.3750 S   0  0  0  0  0  0  0  0  0  0  0  0
   43.7190  -15.1440   10.4500 C   0  0  0  0  0  0  0  0  0  0  0  0
   44.5910  -16.2070   12.4190 C   0  0  0  0  0  0  0  0  0  0  0  0
   44.6930  -15.3000   11.4090 C   0  0  0  0  0  0  0  0  0  0  0  0
  1  7  1  0  0  0  0
  2  8  1  6  0  0  0
  2  1  1  0  0  0  0
  2  5  1  0  0  0  0
  3  2  1  0  0  0  0
  4  3  2  0  0  0  0
  5  9  1  0  0  0  0
  5  6  1  0  0  0  0
  6 11  1  0  0  0  0
 10  5  1  0  0  0  0
 11 12  1  0  0  0  0
 11 13  1  0  0  0  0
 11 14  1  0  0  0  0
 14 15  2  0  0  0  0
 14 19  1  0  0  0  0
 15 17  1  0  0  0  0
 16 17  2  0  0  0  0
 16 18  1  0  0  0  0
 16 19  1  0  0  0  0
 17 20  1  0  0  0  0
 18 21  2  0  0  0  0
 20 22  2  0  0  0  0
 21 22  1  0  0  0  0
M  END
>  <HEADER>
    HYDROLASE                               04-OCT-12   4BD0              

>  <TITLE>
    X-RAY STRUCTURE OF A PERDEUTERATED TOHO-1 R274N R276N DOUBLE MUTANT   
   2 BETA-LACTAMASE IN COMPLEX WITH A FULLY DEUTERATED BORONIC ACID (BZB) 

>  <COMPND>
    MOL_ID: 1;                                                            
   2 MOLECULE: BETA-LACTAMASE TOHO-1;                                     
   3 CHAIN: A;                                                            
   4 FRAGMENT: RESIDUES 32-291;                                           
   5 EC: 3.5.2.6;                                                         
   6 ENGINEERED: YES;                                                     
   7 MUTATION: YES                                                        

>  <SOURCE>
    MOL_ID: 1;                                                            
   2 ORGANISM_SCIENTIFIC: ESCHERICHIA COLI BL21;                          
   3 ORGANISM_TAXID: 511693;                                              
   4 EXPRESSION_SYSTEM: ESCHERICHIA COLI BL21;                            
   5 EXPRESSION_SYSTEM_TAXID: 511693                                      

>  <KEYWDS>
    HYDROLASE, PERDEUTERATED NEUTRON STRUCTURE, EXTENDED-SPECTRUM BETA    
   2 LACTAMASES, CTX- M-TYPE ESBLS                                        

>  <EXPDTA>
    X-RAY DIFFRACTION                                                     

>  <AUTHOR>
    S.J.TOMANICEK,K.L.WEISS,R.F.STANDAERT,A.OSTERMANN,T.E.SCHRADER,       
   2 J.D.NG,L.COATES                                                      

>  <REVDAT>
   3   08-MAY-19 4BD0    1       REMARK LINK   ATOM                       
   2   27-FEB-13 4BD0    1       JRNL                                     
   1   09-JAN-13 4BD0    0                                                

>  <JRNL>
      AUTH   S.J.TOMANICEK,R.F.STANDAERT,K.L.WEISS,A.OSTERMANN,           
      AUTH 2 T.E.SCHRADER,J.D.NG,L.COATES                                 
      TITL   NEUTRON AND X-RAY CRYSTAL STRUCTURES OF A PERDEUTERATED      
      TITL 2 ENZYME INHIBITOR COMPLEX REVEAL THE CATALYTIC PROTON NETWORK 
      TITL 3 OF THE TOHO-1 BETA-LACTAMASE FOR THE ACYLATION REACTION.     
      REF    J.BIOL.CHEM.                  V. 288  4715 2013              
      REFN                   ISSN 0021-9258                               
      PMID   23255594                                                     
      DOI    10.1074/JBC.M112.436238                                      

>  <REMARK>
   2                                                                      
   2 RESOLUTION.    1.21 ANGSTROMS.                                       
   3                                                                      
   3 REFINEMENT.                                                          
   3   PROGRAM     : PHENIX (PHENIX.REFINE)                               
   3   AUTHORS     : PAUL ADAMS,PAVEL AFONINE,VINCENT CHEN,IAN            
   3               : DAVIS,KRESHNA GOPAL,RALF GROSSE-KUNSTLEVE,           
   3               : LI-WEI HUNG,ROBERT IMMORMINO,TOM IOERGER,            
   3               : AIRLIE MCCOY,ERIK MCKEE,NIGEL MORIARTY,              
   3               : REETAL PAI,RANDY READ,JANE RICHARDSON,               
   3               : DAVID RICHARDSON,TOD ROMO,JIM SACCHETTINI,           
   3               : NICHOLAS SAUTER,JACOB SMITH,LAURENT                  
   3               : STORONI,TOM TERWILLIGER,PETER ZWART                  
   3                                                                      
   3    REFINEMENT TARGET : ML                                            
   3                                                                      
   3  DATA USED IN REFINEMENT.                                            
   3   RESOLUTION RANGE HIGH (ANGSTROMS) : 1.21                           
   3   RESOLUTION RANGE LOW  (ANGSTROMS) : 26.41                          
   3   MIN(FOBS/SIGMA_FOBS)              : 1.350                          
   3   COMPLETENESS FOR RANGE        (%) : 99.9                           
   3   NUMBER OF REFLECTIONS             : 91418                          
   3                                                                      
   3  FIT TO DATA USED IN REFINEMENT.                                     
   3   R VALUE     (WORKING + TEST SET) : 0.118                           
   3   R VALUE            (WORKING SET) : 0.117                           
   3   FREE R VALUE                     : 0.133                           
   3   FREE R VALUE TEST SET SIZE   (%) : 5.000                           
   3   FREE R VALUE TEST SET COUNT      : 4585                            
   3                                                                      
   3  FIT TO DATA USED IN REFINEMENT (IN BINS).                           
   3   BIN  RESOLUTION RANGE  COMPL.    NWORK NFREE   RWORK  RFREE        
   3     1 26.4139 -  3.7470    0.98     3041   158  0.1770 0.1709        
   3     2  3.7470 -  2.9754    1.00     2971   164  0.1376 0.1358        
   3     3  2.9754 -  2.5997    1.00     2964   154  0.1340 0.1433        
   3     4  2.5997 -  2.3622    1.00     2944   133  0.1197 0.1424        
   3     5  2.3622 -  2.1929    1.00     2934   146  0.1119 0.1249        
   3     6  2.1929 -  2.0637    1.00     2901   162  0.1050 0.1445        
   3     7  2.0637 -  1.9604    1.00     2890   170  0.1048 0.1162        
   3     8  1.9604 -  1.8751    1.00     2901   158  0.1035 0.1153        
   3     9  1.8751 -  1.8029    1.00     2910   162  0.0978 0.1259        
   3    10  1.8029 -  1.7407    1.00     2898   150  0.1003 0.1265        
   3    11  1.7407 -  1.6863    1.00     2886   150  0.1001 0.1169        
   3    12  1.6863 -  1.6381    1.00     2890   164  0.0970 0.1337        
   3    13  1.6381 -  1.5950    1.00     2885   150  0.0962 0.1110        
   3    14  1.5950 -  1.5561    1.00     2869   162  0.0954 0.1203        
   3    15  1.5561 -  1.5207    1.00     2883   151  0.0902 0.1139        
   3    16  1.5207 -  1.4883    1.00     2887   161  0.0940 0.1090        
   3    17  1.4883 -  1.4586    1.00     2882   143  0.0974 0.1232        
   3    18  1.4586 -  1.4310    1.00     2866   149  0.1027 0.1216        
   3    19  1.4310 -  1.4055    1.00     2899   159  0.1043 0.1442        
   3    20  1.4055 -  1.3817    1.00     2830   164  0.1010 0.1350        
   3    21  1.3817 -  1.3594    1.00     2886   155  0.0966 0.1106        
   3    22  1.3594 -  1.3385    1.00     2884   132  0.0965 0.1216        
   3    23  1.3385 -  1.3188    1.00     2848   153  0.0939 0.1208        
   3    24  1.3188 -  1.3002    1.00     2950   138  0.0976 0.1147        
   3    25  1.3002 -  1.2826    1.00     2825   138  0.1043 0.1161        
   3    26  1.2826 -  1.2660    1.00     2899   136  0.1164 0.1529        
   3    27  1.2660 -  1.2502    1.00     2831   163  0.1250 0.1339        
   3    28  1.2502 -  1.2351    1.00     2877   165  0.1060 0.1146        
   3    29  1.2351 -  1.2207    1.00     2859   148  0.1025 0.1086        
   3    30  1.2207 -  1.2070    1.00     2843   147  0.1111 0.1459        
   3                                                                      
   3  BULK SOLVENT MODELLING.                                             
   3   METHOD USED        : FLAT BULK SOLVENT MODEL                       
   3   SOLVENT RADIUS     : 1.11                                          
   3   SHRINKAGE RADIUS   : 0.90                                          
   3   K_SOL              : 2.00                                          
   3   B_SOL              : 2.00                                          
   3                                                                      
   3  ERROR ESTIMATES.                                                    
   3   COORDINATE ERROR (MAXIMUM-LIKELIHOOD BASED)     : 0.070            
   3   PHASE ERROR (DEGREES, MAXIMUM-LIKELIHOOD BASED) : 9.650            
   3                                                                      
   3  B VALUES.                                                           
   3   FROM WILSON PLOT           (A**2) : 8.37                           
   3   MEAN B VALUE      (OVERALL, A**2) : NULL                           
   3   OVERALL ANISOTROPIC B VALUE.                                       
   3    B11 (A**2) : NULL                                                 
   3    B22 (A**2) : NULL                                                 
   3    B33 (A**2) : NULL                                                 
   3    B12 (A**2) : NULL                                                 
   3    B13 (A**2) : NULL                                                 
   3    B23 (A**2) : NULL                                                 
   3                                                                      
   3  TWINNING INFORMATION.                                               
   3   FRACTION: NULL                                                     
   3   OPERATOR: NULL                                                     
   3                                                                      
   3  DEVIATIONS FROM IDEAL VALUES.                                       
   3                 RMSD          COUNT                                  
   3   BOND      :  0.012           2104                                  
   3   ANGLE     :  1.432           2880                                  
   3   CHIRALITY :  0.084            334                                  
   3   PLANARITY :  0.009            373                                  
   3   DIHEDRAL  : 12.823            782                                  
   3                                                                      
   3  TLS DETAILS                                                         
   3   NUMBER OF TLS GROUPS  : NULL                                       
   3                                                                      
   3  NCS DETAILS                                                         
   3   NUMBER OF NCS GROUPS : NULL                                        
   3                                                                      
   3  OTHER REFINEMENT REMARKS: NULL                                      
   4                                                                      
   4 4BD0 COMPLIES WITH FORMAT V. 3.30, 13-JUL-11                         
 100                                                                      
 100 THIS ENTRY HAS BEEN PROCESSED BY PDBE ON 04-OCT-12.                  
 100 THE DEPOSITION ID IS D_1290054311.                                   
 200                                                                      
 200 EXPERIMENTAL DETAILS                                                 
 200  EXPERIMENT TYPE                : X-RAY DIFFRACTION                  
 200  DATE OF DATA COLLECTION        : 08-AUG-12                          
 200  TEMPERATURE           (KELVIN) : 100                                
 200  PH                             : NULL                               
 200  NUMBER OF CRYSTALS USED        : 1                                  
 200                                                                      
 200  SYNCHROTRON              (Y/N) : Y                                  
 200  RADIATION SOURCE               : APS                                
 200  BEAMLINE                       : 19-ID                              
 200  X-RAY GENERATOR MODEL          : NULL                               
 200  MONOCHROMATIC OR LAUE    (M/L) : M                                  
 200  WAVELENGTH OR RANGE        (A) : 0.97                               
 200  MONOCHROMATOR                  : NULL                               
 200  OPTICS                         : NULL                               
 200                                                                      
 200  DETECTOR TYPE                  : CCD                                
 200  DETECTOR MANUFACTURER          : ADSC QUANTUM 315                   
 200  INTENSITY-INTEGRATION SOFTWARE : MOSFLM                             
 200  DATA SCALING SOFTWARE          : SCALA                              
 200                                                                      
 200  NUMBER OF UNIQUE REFLECTIONS   : 91485                              
 200  RESOLUTION RANGE HIGH      (A) : 1.210                              
 200  RESOLUTION RANGE LOW       (A) : 26.410                             
 200  REJECTION CRITERIA  (SIGMA(I)) : 2.900                              
 200                                                                      
 200 OVERALL.                                                             
 200  COMPLETENESS FOR RANGE     (%) : 99.9                               
 200  DATA REDUNDANCY                : 10.10                              
 200  R MERGE                    (I) : 0.08000                            
 200  R SYM                      (I) : NULL                               
 200  <I/SIGMA(I)> FOR THE DATA SET  : 5.4000                             
 200                                                                      
 200 IN THE HIGHEST RESOLUTION SHELL.                                     
 200  HIGHEST RESOLUTION SHELL, RANGE HIGH (A) : 1.21                     
 200  HIGHEST RESOLUTION SHELL, RANGE LOW  (A) : 1.27                     
 200  COMPLETENESS FOR SHELL     (%) : 100.0                              
 200  DATA REDUNDANCY IN SHELL       : 9.30                               
 200  R MERGE FOR SHELL          (I) : 0.23000                            
 200  R SYM FOR SHELL            (I) : NULL                               
 200  <I/SIGMA(I)> FOR SHELL         : 2.900                              
 200                                                                      
 200 DIFFRACTION PROTOCOL: SINGLE WAVELENGTH                              
 200 METHOD USED TO DETERMINE THE STRUCTURE: MOLECULAR REPLACEMENT        
 200 SOFTWARE USED: PHASER                                                
 200 STARTING MODEL: PDB ENTRY 2ZQ8                                       
 200                                                                      
 200 REMARK: NONE                                                         
 280                                                                      
 280 CRYSTAL                                                              
 280 SOLVENT CONTENT, VS   (%): 53.35                                     
 280 MATTHEWS COEFFICIENT, VM (ANGSTROMS**3/DA): 2.64                     
 280                                                                      
 280 CRYSTALLIZATION CONDITIONS: 2.0 M AMMONIUM SULFATE AND 0.1 M         
 280  SODIUM CITRATE PD 5.1 PREPARED IN 99.9 PERCENT D2O AT 20 C,         
 280  TEMPERATURE 293K                                                    
 290                                                                      
 290 CRYSTALLOGRAPHIC SYMMETRY                                            
 290 SYMMETRY OPERATORS FOR SPACE GROUP: P 32 2 1                         
 290                                                                      
 290      SYMOP   SYMMETRY                                                
 290     NNNMMM   OPERATOR                                                
 290       1555   X,Y,Z                                                   
 290       2555   -Y,X-Y,Z+2/3                                            
 290       3555   -X+Y,-X,Z+1/3                                           
 290       4555   Y,X,-Z                                                  
 290       5555   X-Y,-Y,-Z+1/3                                           
 290       6555   -X,-X+Y,-Z+2/3                                          
 290                                                                      
 290     WHERE NNN -> OPERATOR NUMBER                                     
 290           MMM -> TRANSLATION VECTOR                                  
 290                                                                      
 290 CRYSTALLOGRAPHIC SYMMETRY TRANSFORMATIONS                            
 290 THE FOLLOWING TRANSFORMATIONS OPERATE ON THE ATOM/HETATM             
 290 RECORDS IN THIS ENTRY TO PRODUCE CRYSTALLOGRAPHICALLY                
 290 RELATED MOLECULES.                                                   
 290   SMTRY1   1  1.000000  0.000000  0.000000        0.00000            
 290   SMTRY2   1  0.000000  1.000000  0.000000        0.00000            
 290   SMTRY3   1  0.000000  0.000000  1.000000        0.00000            
 290   SMTRY1   2 -0.500000 -0.866025  0.000000        0.00000            
 290   SMTRY2   2  0.866025 -0.500000  0.000000        0.00000            
 290   SMTRY3   2  0.000000  0.000000  1.000000       65.11333            
 290   SMTRY1   3 -0.500000  0.866025  0.000000        0.00000            
 290   SMTRY2   3 -0.866025 -0.500000  0.000000        0.00000            
 290   SMTRY3   3  0.000000  0.000000  1.000000       32.55667            
 290   SMTRY1   4 -0.500000  0.866025  0.000000        0.00000            
 290   SMTRY2   4  0.866025  0.500000  0.000000        0.00000            
 290   SMTRY3   4  0.000000  0.000000 -1.000000        0.00000            
 290   SMTRY1   5  1.000000  0.000000  0.000000        0.00000            
 290   SMTRY2   5  0.000000 -1.000000  0.000000        0.00000            
 290   SMTRY3   5  0.000000  0.000000 -1.000000       32.55667            
 290   SMTRY1   6 -0.500000 -0.866025  0.000000        0.00000            
 290   SMTRY2   6 -0.866025  0.500000  0.000000        0.00000            
 290   SMTRY3   6  0.000000  0.000000 -1.000000       65.11333            
 290                                                                      
 290 REMARK: NULL                                                         
 300                                                                      
 300 BIOMOLECULE: 1                                                       
 300 SEE REMARK 350 FOR THE AUTHOR PROVIDED AND/OR PROGRAM                
 300 GENERATED ASSEMBLY INFORMATION FOR THE STRUCTURE IN                  
 300 THIS ENTRY. THE REMARK MAY ALSO PROVIDE INFORMATION ON               
 300 BURIED SURFACE AREA.                                                 
 350                                                                      
 350 COORDINATES FOR A COMPLETE MULTIMER REPRESENTING THE KNOWN           
 350 BIOLOGICALLY SIGNIFICANT OLIGOMERIZATION STATE OF THE                
 350 MOLECULE CAN BE GENERATED BY APPLYING BIOMT TRANSFORMATIONS          
 350 GIVEN BELOW.  BOTH NON-CRYSTALLOGRAPHIC AND                          
 350 CRYSTALLOGRAPHIC OPERATIONS ARE GIVEN.                               
 350                                                                      
 350 BIOMOLECULE: 1                                                       
 350 AUTHOR DETERMINED BIOLOGICAL UNIT: MONOMERIC                         
 350 SOFTWARE DETERMINED QUATERNARY STRUCTURE: MONOMERIC                  
 350 SOFTWARE USED: PISA                                                  
 350 APPLY THE FOLLOWING TO CHAINS: A                                     
 350   BIOMT1   1  1.000000  0.000000  0.000000        0.00000            
 350   BIOMT2   1  0.000000  1.000000  0.000000        0.00000            
 350   BIOMT3   1  0.000000  0.000000  1.000000        0.00000            
 375                                                                      
 375 SPECIAL POSITION                                                     
 375 THE FOLLOWING ATOMS ARE FOUND TO BE WITHIN 0.15 ANGSTROMS            
 375 OF A SYMMETRY RELATED ATOM AND ARE ASSUMED TO BE ON SPECIAL          
 375 POSITIONS.                                                           
 375                                                                      
 375 ATOM RES CSSEQI                                                      
 375      HOH A2027  LIES ON A SPECIAL POSITION.                          
 375      HOH A2162  LIES ON A SPECIAL POSITION.                          
 375      HOH A2365  LIES ON A SPECIAL POSITION.                          
 470                                                                      
 470 MISSING ATOM                                                         
 470 THE FOLLOWING RESIDUES HAVE MISSING ATOMS (M=MODEL NUMBER;           
 470 RES=RESIDUE NAME; C=CHAIN IDENTIFIER; SSEQ=SEQUENCE NUMBER;          
 470 I=INSERTION CODE):                                                   
 470   M RES CSSEQI  ATOMS                                                
 470     ASN A  27    CG   OD1  ND2                                       
 500                                                                      
 500 GEOMETRY AND STEREOCHEMISTRY                                         
 500 SUBTOPIC: CLOSE CONTACTS IN SAME ASYMMETRIC UNIT                     
 500                                                                      
 500 THE FOLLOWING ATOMS ARE IN CLOSE CONTACT.                            
 500                                                                      
 500  ATM1  RES C  SSEQI   ATM2  RES C  SSEQI           DISTANCE          
 500  HD22  ASN A   104     C5   BZB A   300              0.84            
 500  HG23  VAL A   103     H    ASN A   104              1.08            
 500  HD22  ASN A   104     C6   BZB A   300              1.60            
 500   ND2  ASN A   104     C6   BZB A   300              1.77            
 500   O    HOH A  2185     O    HOH A  2337              2.01            
 500   O    HOH A  2156     O    HOH A  2157              2.07            
 500   O    HOH A  2046     O    HOH A  2094              2.13            
 500                                                                      
 500 REMARK: NULL                                                         
 500                                                                      
 500 GEOMETRY AND STEREOCHEMISTRY                                         
 500 SUBTOPIC: COVALENT BOND LENGTHS                                      
 500                                                                      
 500 THE STEREOCHEMICAL PARAMETERS OF THE FOLLOWING RESIDUES              
 500 HAVE VALUES WHICH DEVIATE FROM EXPECTED VALUES BY MORE               
 500 THAN 6*RMSD (M=MODEL NUMBER; RES=RESIDUE NAME; C=CHAIN               
 500 IDENTIFIER; SSEQ=SEQUENCE NUMBER; I=INSERTION CODE).                 
 500                                                                      
 500 STANDARD TABLE:                                                      
 500 FORMAT: (10X,I3,1X,2(A3,1X,A1,I4,A1,1X,A4,3X),1X,F6.3)               
 500                                                                      
 500 EXPECTED VALUES PROTEIN: ENGH AND HUBER, 1999                        
 500 EXPECTED VALUES NUCLEIC ACID: CLOWNEY ET AL 1996                     
 500                                                                      
 500  M RES CSSEQI ATM1   RES CSSEQI ATM2   DEVIATION                     
 500    LYS A  38   CE    LYS A  38   NZ      0.186                       
 500    VAL A 103   CB    VAL A 103   CG1    -0.178                       
 500                                                                      
 500 REMARK: NULL                                                         
 500                                                                      
 500 GEOMETRY AND STEREOCHEMISTRY                                         
 500 SUBTOPIC: TORSION ANGLES                                             
 500                                                                      
 500 TORSION ANGLES OUTSIDE THE EXPECTED RAMACHANDRAN REGIONS:            
 500 (M=MODEL NUMBER; RES=RESIDUE NAME; C=CHAIN IDENTIFIER;               
 500 SSEQ=SEQUENCE NUMBER; I=INSERTION CODE).                             
 500                                                                      
 500 STANDARD TABLE:                                                      
 500 FORMAT:(10X,I3,1X,A3,1X,A1,I4,A1,4X,F7.2,3X,F7.2)                    
 500                                                                      
 500 EXPECTED VALUES: GJ KLEYWEGT AND TA JONES (1996). PHI/PSI-           
 500 CHOLOGY: RAMACHANDRAN REVISITED. STRUCTURE 4, 1395 - 1400            
 500                                                                      
 500  M RES CSSEQI        PSI       PHI                                   
 500    ASP A  53       11.00   -141.67                                   
 500    CYS A  69     -138.40     49.49                                   
 500    VAL A 103     -146.10   -114.66                                   
 500    TYR A 105      111.05   -162.48                                   
 500    ASN A 106       53.00   -144.48                                   
 500    ASN A 114       -1.74     74.42                                   
 500    SER A 220     -128.21   -102.60                                   
 500                                                                      
 500 REMARK: NULL                                                         
 525                                                                      
 525 SOLVENT                                                              
 525                                                                      
 525 THE SOLVENT MOLECULES HAVE CHAIN IDENTIFIERS THAT                    
 525 INDICATE THE POLYMER CHAIN WITH WHICH THEY ARE MOST                  
 525 CLOSELY ASSOCIATED. THE REMARK LISTS ALL THE SOLVENT                 
 525 MOLECULES WHICH ARE MORE THAN 5A AWAY FROM THE                       
 525 NEAREST POLYMER CHAIN (M = MODEL NUMBER;                             
 525 RES=RESIDUE NAME; C=CHAIN IDENTIFIER; SSEQ=SEQUENCE                  
 525 NUMBER; I=INSERTION CODE):                                           
 525                                                                      
 525  M RES CSSEQI                                                        
 525    HOH A2042        DISTANCE =  6.03 ANGSTROMS                       
 525    HOH A2197        DISTANCE =  6.47 ANGSTROMS                       
 600                                                                      
 600 HETEROGEN                                                            
 600                                                                      
 600 BENZO[B]THIOPHENE-2-BORONIC ACID (BZB): PERDEUTERATED                
 800                                                                      
 800 SITE                                                                 
 800 SITE_IDENTIFIER: AC1                                                 
 800 EVIDENCE_CODE: SOFTWARE                                              
 800 SITE_DESCRIPTION: BINDING SITE FOR RESIDUE SO4 A 1292                
 800                                                                      
 800 SITE_IDENTIFIER: AC2                                                 
 800 EVIDENCE_CODE: SOFTWARE                                              
 800 SITE_DESCRIPTION: BINDING SITE FOR RESIDUE SO4 A 1293                
 800                                                                      
 800 SITE_IDENTIFIER: AC3                                                 
 800 EVIDENCE_CODE: SOFTWARE                                              
 800 SITE_DESCRIPTION: BINDING SITE FOR RESIDUE SO4 A 1294                
 800                                                                      
 800 SITE_IDENTIFIER: AC4                                                 
 800 EVIDENCE_CODE: SOFTWARE                                              
 800 SITE_DESCRIPTION: BINDING SITE FOR RESIDUE SO4 A 1295                
 800                                                                      
 800 SITE_IDENTIFIER: AC5                                                 
 800 EVIDENCE_CODE: SOFTWARE                                              
 800 SITE_DESCRIPTION: BINDING SITE FOR RESIDUE SO4 A 1296                
 800                                                                      
 800 SITE_IDENTIFIER: AC6                                                 
 800 EVIDENCE_CODE: SOFTWARE                                              
 800 SITE_DESCRIPTION: Binding site for Ligand BZB A 300 bound to SER A   
 800  70                                                                  
 800                                                                      
 800 SITE_IDENTIFIER: AC7                                                 
 800 EVIDENCE_CODE: SOFTWARE                                              
 800 SITE_DESCRIPTION: Binding site for Ligand BZB A 300 bound to ASN A   
 800  104                                                                 
 900                                                                      
 900 RELATED ENTRIES                                                      
 900 RELATED ID: 1BZA   RELATED DB: PDB                                   
 900 BETA-LACTAMASE TOHO-1 FROM ESCHERICHIA COLI TUH12191                 
 900 RELATED ID: 1IYO   RELATED DB: PDB                                   
 900 TOHO-1 BETA-LACTAMASE IN COMPLEX WITH CEFOTAXIME                     
 900 RELATED ID: 1IYP   RELATED DB: PDB                                   
 900 TOHO-1 BETA-LACTAMASE IN COMPLEX WITH CEPHALOTHIN                    
 900 RELATED ID: 1IYQ   RELATED DB: PDB                                   
 900 TOHO-1 BETA-LACTAMASE IN COMPLEX WITH BENZYLPENICILLIN               
 900 RELATED ID: 1IYS   RELATED DB: PDB                                   
 900 CRYSTAL STRUCTURE OF CLASS A BETA-LACTAMASE TOHO-1                   
 900 RELATED ID: 1WE4   RELATED DB: PDB                                   
 900 CRYSTAL STRUCTURE OF CLASS A BETA-LACTAMASE TOHO-1 G238CMUTANT       
 900 RELATED ID: 2WYX   RELATED DB: PDB                                   
 900 NEUTRON STRUCTURE OF A CLASS A BETA-LACTAMASE TOHO-1 E166A R274N     
 900 R276N TRIPLE MUTANT                                                  
 900 RELATED ID: 2XQZ   RELATED DB: PDB                                   
 900 NEUTRON STRUCTURE OF THE PERDEUTERATED TOHO-1 R274N R276N DOUBLE     
 900 MUTANT BETA-LACTAMASE                                                
 900 RELATED ID: 2XR0   RELATED DB: PDB                                   
 900 ROOM TEMPERATURE X-RAY STRUCTURE OF THE PERDEUTERATED TOHO-1 R274N   
 900 R276N DOUBLE MUTANT BETA-LACTAMASE                                   
 900 RELATED ID: 4BD1   RELATED DB: PDB                                   
 900 NEUTRON STRUCTURE OF A PERDEUTERATED TOHO-1 R274N R276N DOUBLE       
 900 MUTANT BETA-LACTAMASE IN COMPLEX WITH A FULLY DEUTERATED BORONIC     
 900 ACID (BZB)                                                           

>  <DBREF>
 4BD0 A   27   290  UNP    Q47066   BLT1_ECOLX      31    291             

>  <SEQADV>
 4BD0 ASN A  274  UNP  Q47066    ARG   275 ENGINEERED MUTATION            
 4BD0 ASN A  276  UNP  Q47066    ARG   277 ENGINEERED MUTATION            

>  <SEQRES>
   1 A  261  ASN SER VAL GLN GLN GLN LEU GLU ALA LEU GLU LYS SER          
   2 A  261  SER GLY GLY ARG LEU GLY VAL ALA LEU ILE ASN THR ALA          
   3 A  261  ASP ASN SER GLN ILE LEU TYR ARG ALA ASP GLU ARG PHE          
   4 A  261  ALA MET CYS SER THR SER LYS VAL MET ALA ALA ALA ALA          
   5 A  261  VAL LEU LYS GLN SER GLU SER ASP LYS HIS LEU LEU ASN          
   6 A  261  GLN ARG VAL GLU ILE LYS LYS SER ASP LEU VAL ASN TYR          
   7 A  261  ASN PRO ILE ALA GLU LYS HIS VAL ASN GLY THR MET THR          
   8 A  261  LEU ALA GLU LEU GLY ALA ALA ALA LEU GLN TYR SER ASP          
   9 A  261  ASN THR ALA MET ASN LYS LEU ILE ALA HIS LEU GLY GLY          
  10 A  261  PRO ASP LYS VAL THR ALA PHE ALA ARG SER LEU GLY ASP          
  11 A  261  GLU THR PHE ARG LEU ASP ARG THR GLU PRO THR LEU ASN          
  12 A  261  THR ALA ILE PRO GLY ASP PRO ARG ASP THR THR THR PRO          
  13 A  261  LEU ALA MET ALA GLN THR LEU LYS ASN LEU THR LEU GLY          
  14 A  261  LYS ALA LEU ALA GLU THR GLN ARG ALA GLN LEU VAL THR          
  15 A  261  TRP LEU LYS GLY ASN THR THR GLY SER ALA SER ILE ARG          
  16 A  261  ALA GLY LEU PRO LYS SER TRP VAL VAL GLY ASP LYS THR          
  17 A  261  GLY SER GLY ASP TYR GLY THR THR ASN ASP ILE ALA VAL          
  18 A  261  ILE TRP PRO GLU ASN HIS ALA PRO LEU VAL LEU VAL THR          
  19 A  261  TYR PHE THR GLN PRO GLU GLN LYS ALA GLU ASN ARG ASN          
  20 A  261  ASP ILE LEU ALA ALA ALA ALA LYS ILE VAL THR HIS GLY          
  21 A  261  PHE                                                          

>  <HET>
 BZB  A 300      12                                                       
 SO4  A1291       5                                                       
 SO4  A1292       5                                                       
 SO4  A1293       5                                                       
 SO4  A1294       5                                                       
 SO4  A1295       5                                                       
 SO4  A1296       5                                                       

>  <HETNAM>
     BZB BENZO[B]THIOPHENE-2-BORONIC ACID                                 
     SO4 SULFATE ION                                                      

>  <FORMUL>
   2  BZB    C8 H7 B O2 S                                                 
   3  SO4    6(O4 S 2-)                                                   
   9  HOH   *397(H2 O)                                                    

>  <HELIX>
   1   1 SER A   28  GLY A   41  1                                  14    
   2   2 CYS A   69  THR A   71  5                                   3    
   3   3 SER A   72  GLU A   85  1                                  14    
   4   4 LYS A   98  LEU A  102  5                                   5    
   5   5 ILE A  108  VAL A  113  5                                   6    
   6   6 LEU A  119  TYR A  129  1                                  11    
   7   7 ASP A  131  GLY A  143  1                                  13    
   8   8 GLY A  144  LEU A  155  1                                  12    
   9   9 PRO A  167  THR A  171  5                                   5    
  10  10 THR A  182  LEU A  195  1                                  14    
  11  11 ALA A  200  GLY A  213  1                                  14    
  12  12 SER A  220  LEU A  225  5                                   6    
  13  13 ARG A  275  HIS A  288  1                                  14    

>  <SHEET>
   1  AA 5 GLN A  56  TYR A  60  0                                        
   2  AA 5 ARG A  43  ASN A  50 -1  O  VAL A  46   N  TYR A  60           
   3  AA 5 LEU A 259  THR A 266 -1  O  VAL A 260   N  ILE A  49           
   4  AA 5 THR A 244  TRP A 251 -1  O  THR A 244   N  PHE A 265           
   5  AA 5 VAL A 230  SER A 237 -1  O  VAL A 230   N  TRP A 251           
   1  AB 2 PHE A  66  ALA A  67  0                                        
   2  AB 2 THR A 180  THR A 181 -1  O  THR A 181   N  PHE A  66           
   1  AC 2 ARG A  94  GLU A  96  0                                        
   2  AC 2 THR A 116  THR A 118 -1  O  MET A 117   N  VAL A  95           

>  <LINK>
       B  ABZB A 300                 OG  SER A  70     1555   1555  1.47  
       C5 ABZB A 300                 ND2 ASN A 104     1555   1555  1.45  

>  <CISPEP>
   1 GLU A  166    PRO A  167          0         6.13                     

>  <SITE>
   1 AC1 10 TRP A 229  PRO A 252  GLU A 254  ASN A 255                    
   2 AC1 10 HIS A 256  PHE A 290  HOH A2387  HOH A2389                    
   3 AC1 10 HOH A2390  HOH A2391                                          
   1 AC2  7 ALA A  52  ARG A 178  HOH A2051  HOH A2056                    
   2 AC2  7 HOH A2255  HOH A2362  HOH A2392                               
   1 AC3 15 LYS A  82  ALA A 198  ASN A 274  ARG A 275                    
   2 AC3 15 ASN A 276  ASP A 277  HOH A2122  HOH A2123                    
   3 AC3 15 HOH A2124  HOH A2125  HOH A2286  HOH A2374                    
   4 AC3 15 HOH A2377  HOH A2393  HOH A2394                               
   1 AC4  5 GLU A 269  GLN A 270  HOH A2278  HOH A2366                    
   2 AC4  5 HOH A2370                                                     
   1 AC5  3 THR A 209  LYS A 212  HOH A2296                               
   1 AC6 11 CYS A  69  SER A  70  ASN A 104  TYR A 105                    
   2 AC6 11 SER A 130  ASN A 132  ASN A 170  GLY A 236                    
   3 AC6 11 SER A 237  HOH A1500  HOH A1502                               
   1 AC7 11 CYS A  69  SER A  70  ASN A 104  TYR A 105                    
   2 AC7 11 SER A 130  ASN A 132  ASN A 170  GLY A 236                    
   3 AC7 11 SER A 237  HOH A1500  HOH A1502                               

>  <ORIGX1>
      1.000000  0.000000  0.000000        0.00000                         

>  <ORIGX2>
      0.000000  1.000000  0.000000        0.00000                         

>  <ORIGX3>
      0.000000  0.000000  1.000000        0.00000                         

>  <SCALE1>
      0.013793  0.007963  0.000000        0.00000                         

>  <SCALE2>
      0.000000  0.015927  0.000000        0.00000                         

>  <SCALE3>
      0.000000  0.000000  0.010239        0.00000                         

>  <ANISOU>
  658  N   SER A  70      631    418    472    -37    -58    -46       N  
  659  CA  SER A  70      617    390    552     40    -51    -20       C  
  660  C   SER A  70      550    363    440    -66     -2     65       C  
  661  O   SER A  70      670    398    472     -4    -16     71       O  
  662  CB  SER A  70      682    420    488    -23   -103    -32       C  
  663  OG  SER A  70      741    629    552   -135   -201     30       O  
 4060  B  ABZB A 300      856    574    639   -105   -166     32       B  
 4061  O1 ABZB A 300     1005    546    713     -4    181    -15       O  
 4062  O2 ABZB A 300      832    469    646     29   -208     20       O  
 4063  C1 ABZB A 300     1230    767    853   -165   -310     66       C  
 4064  C2 ABZB A 300     1118    848    941   -391   -349   -150       C  
 4065  C8 ABZB A 300     1584   1128   1111   -266   -747     82       C  
 4066  C3 ABZB A 300     1487    949   1133   -267   -553     12       C  
 4067  C7 ABZB A 300     1708   1588   1305   -211   -862     18       C  
 4068  S  ABZB A 300     1627   1071    974   -247   -618    244       S  
 4069  C4 ABZB A 300     1527   1491   1222   -131   -732    -36       C  
 4070  C6 ABZB A 300     1766   1646   1446   -281   -844     74       C  
 4071  C5 ABZB A 300     1663   1706   1392   -174   -797     74       C  

>  <MASTER>
      380    0    7   13    9    0   18    6 2409    1   44   21          

$$$$
