start_structures/Ligand_Substrate/Ligand_Complex_Stripped/C6S_5T66.pdb
 OpenBabel08222315203D

 29 31  0  0  1  0  0  0  0  0999 V2000
  -43.3360    8.0940   19.9650 N   0  0  0  0  0  0  0  0  0  0  0  0
  -42.7470    8.4740   21.2590 C   0  0  2  0  0  0  0  0  0  0  0  0
  -42.4000    9.9640   21.4030 C   0  0  0  0  0  0  0  0  0  0  0  0
  -42.0540   10.3760   22.4640 O   0  0  0  0  0  0  0  0  0  0  0  0
  -41.4810    7.6230   21.5560 C   0  0  0  0  0  0  0  0  0  0  0  0
  -41.8670    6.2440   21.7060 O   0  0  0  0  0  0  0  0  0  0  0  0
  -41.7540    5.6030   19.6000 O   0  0  0  0  0  0  0  0  0  0  0  0
  -41.3270    5.2940   20.8500 B   0  0  1  0  0  0  0  0  0  0  0  0
  -39.9830    5.4590   20.8890 O   0  0  0  0  0  0  0  0  0  0  0  0
  -39.1730    4.3120   20.6050 C   0  0  0  0  0  0  0  0  0  0  0  0
  -39.5620    3.0600   21.0820 C   0  0  0  0  0  0  0  0  0  0  0  0
  -40.8690    3.0060   21.8990 C   0  0  0  0  0  0  0  0  0  0  0  0
  -41.8670    3.8750   21.2120 C   0  0  2  0  0  0  0  0  0  0  0  0
  -42.1580    3.1710   19.9320 N   0  0  0  0  0  0  0  0  0  0  0  0
  -42.7940    1.8130   19.9010 C   0  0  0  0  0  0  0  0  0  0  0  0
  -43.1110    1.2270   20.9090 O   0  0  0  0  0  0  0  0  0  0  0  0
  -43.0140    1.1800   18.4650 C   0  0  0  0  0  0  0  0  0  0  0  0
  -44.1960    0.1870   18.4450 C   0  0  0  0  0  0  0  0  0  0  0  0
  -44.3570   -0.3690   17.0570 C   0  0  0  0  0  0  0  0  0  0  0  0
  -43.0800   -1.0270   16.5630 C   0  0  0  0  0  0  0  0  0  0  0  0
  -41.8340   -0.1230   16.7100 C   0  0  0  0  0  0  0  0  0  0  0  0
  -41.7280    0.4900   18.0790 C   0  0  0  0  0  0  0  0  0  0  0  0
  -38.7890    1.9340   20.7970 C   0  0  0  0  0  0  0  0  0  0  0  0
  -37.6190    2.0750   20.0450 C   0  0  0  0  0  0  0  0  0  0  0  0
  -37.2240    3.3520   19.5700 C   0  0  0  0  0  0  0  0  0  0  0  0
  -37.9980    4.4580   19.8430 C   0  0  0  0  0  0  0  0  0  0  0  0
  -37.5690    5.8480   19.3410 C   0  0  0  0  0  0  0  0  0  0  0  0
  -37.4550    6.0930   18.1240 O   0  0  0  0  0  0  0  0  0  0  0  0
  -37.3320    6.7300   20.1820 O   0  0  0  0  0  0  0  0  0  0  0  0
  2  1  1  6  0  0  0
  2  3  1  0  0  0  0
  2  5  1  0  0  0  0
  3  4  2  0  0  0  0
  5  6  1  0  0  0  0
  6  8  1  0  0  0  0
  8  7  1  6  0  0  0
  8  9  1  0  0  0  0
  8 13  1  0  0  0  0
  9 10  1  0  0  0  0
 10 11  2  0  0  0  0
 10 26  1  0  0  0  0
 11 12  1  0  0  0  0
 11 23  1  0  0  0  0
 12 13  1  0  0  0  0
 13 14  1  6  0  0  0
 14 15  1  0  0  0  0
 15 16  2  0  0  0  0
 15 17  1  0  0  0  0
 17 18  1  0  0  0  0
 17 22  1  0  0  0  0
 18 19  1  0  0  0  0
 19 20  1  0  0  0  0
 20 21  1  0  0  0  0
 21 22  1  0  0  0  0
 23 24  2  0  0  0  0
 24 25  1  0  0  0  0
 25 26  2  0  0  0  0
 26 27  1  0  0  0  0
 27 28  2  0  0  0  0
 27 29  1  0  0  0  0
M  END
>  <HEADER>
    HYDROLASE                               01-SEP-16   5T66              

>  <TITLE>
    CRYSTAL STRUCTURE OF CTX-M-15 WITH 1C                                 

>  <COMPND>
    MOL_ID: 1;                                                            
   2 MOLECULE: BETA-LACTAMASE;                                            
   3 CHAIN: A, B;                                                         
   4 EC: 3.5.2.6;                                                         
   5 ENGINEERED: YES;                                                     
   6 OTHER_DETAILS: SER73 COMPLEXED TO BORONATE 1C                        

>  <SOURCE>
    MOL_ID: 1;                                                            
   2 ORGANISM_SCIENTIFIC: KLEBSIELLA PNEUMONIAE;                          
   3 ORGANISM_TAXID: 573;                                                 
   4 GENE: BLACTX-M-15;                                                   
   5 EXPRESSION_SYSTEM: ESCHERICHIA COLI BL21(DE3);                       
   6 EXPRESSION_SYSTEM_TAXID: 469008;                                     
   7 EXPRESSION_SYSTEM_VECTOR_TYPE: PLASMID;                              
   8 EXPRESSION_SYSTEM_PLASMID: POPINF                                    

>  <KEYWDS>
    SERINE-BETA-LACTAMASE, HYDROLASE, BORONATE INHIBITOR                  

>  <EXPDTA>
    X-RAY DIFFRACTION                                                     

>  <AUTHOR>
    S.T.CAHILL,J.BREM,M.A.MCDONOUGH,C.J.SCHOFIELD                         

>  <REVDAT>
   3   13-SEP-17 5T66    1       REMARK                                   
   2   05-APR-17 5T66    1       JRNL                                     
   1   15-FEB-17 5T66    0                                                

>  <JRNL>
      AUTH   S.T.CAHILL,R.CAIN,D.Y.WANG,C.T.LOHANS,D.W.WAREHAM,H.P.OSWIN, 
      AUTH 2 J.MOHAMMED,J.SPENCER,C.W.FISHWICK,M.A.MCDONOUGH,             
      AUTH 3 C.J.SCHOFIELD,J.BREM                                         
      TITL   CYCLIC BORONATES INHIBIT ALL CLASSES OF BETA-LACTAMASES.     
      REF    ANTIMICROB. AGENTS            V.  61       2017              
      REF  2 CHEMOTHER.                                                   
      REFN                   ESSN 1098-6596                               
      PMID   28115348                                                     
      DOI    10.1128/AAC.02260-16                                         

>  <REMARK>
   2                                                                      
   2 RESOLUTION.    1.95 ANGSTROMS.                                       
   3                                                                      
   3 REFINEMENT.                                                          
   3   PROGRAM     : PHENIX (1.10_2155: ???)                              
   3   AUTHORS     : PAUL ADAMS,PAVEL AFONINE,VINCENT CHEN,IAN            
   3               : DAVIS,KRESHNA GOPAL,RALF GROSSE-KUNSTLEVE,           
   3               : LI-WEI HUNG,ROBERT IMMORMINO,TOM IOERGER,            
   3               : AIRLIE MCCOY,ERIK MCKEE,NIGEL MORIARTY,              
   3               : REETAL PAI,RANDY READ,JANE RICHARDSON,               
   3               : DAVID RICHARDSON,TOD ROMO,JIM SACCHETTINI,           
   3               : NICHOLAS SAUTER,JACOB SMITH,LAURENT                  
   3               : STORONI,TOM TERWILLIGER,PETER ZWART                  
   3                                                                      
   3    REFINEMENT TARGET : NULL                                          
   3                                                                      
   3  DATA USED IN REFINEMENT.                                            
   3   RESOLUTION RANGE HIGH (ANGSTROMS) : 1.95                           
   3   RESOLUTION RANGE LOW  (ANGSTROMS) : 21.68                          
   3   MIN(FOBS/SIGMA_FOBS)              : 1.330                          
   3   COMPLETENESS FOR RANGE        (%) : 99.1                           
   3   NUMBER OF REFLECTIONS             : 36608                          
   3                                                                      
   3  FIT TO DATA USED IN REFINEMENT.                                     
   3   R VALUE     (WORKING + TEST SET) : 0.202                           
   3   R VALUE            (WORKING SET) : 0.200                           
   3   FREE R VALUE                     : 0.234                           
   3   FREE R VALUE TEST SET SIZE   (%) : 5.460                           
   3   FREE R VALUE TEST SET COUNT      : 1999                            
   3                                                                      
   3  FIT TO DATA USED IN REFINEMENT (IN BINS).                           
   3   BIN  RESOLUTION RANGE  COMPL.    NWORK NFREE   RWORK  RFREE        
   3     1 21.6790 -  4.6877    0.99     2674   154  0.2274 0.2339        
   3     2  4.6877 -  3.7269    0.95     2419   141  0.1841 0.2154        
   3     3  3.7269 -  3.2576    0.96     2430   139  0.1834 0.2382        
   3     4  3.2576 -  2.9606    1.00     2495   144  0.1815 0.2128        
   3     5  2.9606 -  2.7488    1.00     2470   144  0.1883 0.2053        
   3     6  2.7488 -  2.5870    1.00     2488   143  0.1852 0.2588        
   3     7  2.5870 -  2.4577    1.00     2486   144  0.1923 0.2313        
   3     8  2.4577 -  2.3508    1.00     2482   143  0.1900 0.2430        
   3     9  2.3508 -  2.2604    1.00     2455   142  0.2008 0.2198        
   3    10  2.2604 -  2.1825    1.00     2451   141  0.2067 0.2444        
   3    11  2.1825 -  2.1143    1.00     2472   143  0.2150 0.2630        
   3    12  2.1143 -  2.0539    1.00     2440   141  0.2284 0.2642        
   3    13  2.0539 -  1.9999    1.00     2456   142  0.2376 0.2441        
   3    14  1.9999 -  1.9511    0.98     2391   138  0.2647 0.2964        
   3                                                                      
   3  BULK SOLVENT MODELLING.                                             
   3   METHOD USED        : NULL                                          
   3   SOLVENT RADIUS     : 1.11                                          
   3   SHRINKAGE RADIUS   : 0.90                                          
   3   K_SOL              : NULL                                          
   3   B_SOL              : NULL                                          
   3                                                                      
   3  ERROR ESTIMATES.                                                    
   3   COORDINATE ERROR (MAXIMUM-LIKELIHOOD BASED)     : 0.200            
   3   PHASE ERROR (DEGREES, MAXIMUM-LIKELIHOOD BASED) : 23.900           
   3                                                                      
   3  B VALUES.                                                           
   3   FROM WILSON PLOT           (A**2) : 16.67                          
   3   MEAN B VALUE      (OVERALL, A**2) : 19.31                          
   3   OVERALL ANISOTROPIC B VALUE.                                       
   3    B11 (A**2) : NULL                                                 
   3    B22 (A**2) : NULL                                                 
   3    B33 (A**2) : NULL                                                 
   3    B12 (A**2) : NULL                                                 
   3    B13 (A**2) : NULL                                                 
   3    B23 (A**2) : NULL                                                 
   3                                                                      
   3  TWINNING INFORMATION.                                               
   3   FRACTION: NULL                                                     
   3   OPERATOR: NULL                                                     
   3                                                                      
   3  DEVIATIONS FROM IDEAL VALUES.                                       
   3                 RMSD          COUNT                                  
   3   BOND      :  0.003           3978                                  
   3   ANGLE     :  0.673           5427                                  
   3   CHIRALITY :  0.044            642                                  
   3   PLANARITY :  0.004            710                                  
   3   DIHEDRAL  : 11.527           2429                                  
   3                                                                      
   3  TLS DETAILS                                                         
   3   NUMBER OF TLS GROUPS  : 11                                         
   3   TLS GROUP : 1                                                      
   3    SELECTION: CHAIN 'A' AND (RESID 2 THROUGH 26 )                    
   3    ORIGIN FOR THE GROUP (A): -38.1395  17.9290   2.3407              
   3    T TENSOR                                                          
   3      T11:   0.1354 T22:   0.2077                                     
   3      T33:   0.1289 T12:  -0.0183                                     
   3      T13:  -0.0318 T23:   0.0011                                     
   3    L TENSOR                                                          
   3      L11:   2.5463 L22:   6.8236                                     
   3      L33:   3.8937 L12:   2.1179                                     
   3      L13:   0.4325 L23:   2.3617                                     
   3    S TENSOR                                                          
   3      S11:  -0.2229 S12:   0.2728 S13:   0.0299                       
   3      S21:  -0.5819 S22:   0.2131 S23:  -0.1890                       
   3      S31:  -0.1501 S32:   0.0668 S33:   0.0104                       
   3   TLS GROUP : 2                                                      
   3    SELECTION: CHAIN 'A' AND (RESID 27 THROUGH 46 )                   
   3    ORIGIN FOR THE GROUP (A): -43.2862  18.8769  12.3474              
   3    T TENSOR                                                          
   3      T11:   0.1495 T22:   0.1309                                     
   3      T33:   0.1116 T12:   0.0181                                     
   3      T13:   0.0103 T23:  -0.0230                                     
   3    L TENSOR                                                          
   3      L11:   1.7201 L22:   1.5151                                     
   3      L33:   1.3815 L12:   1.1411                                     
   3      L13:   0.3345 L23:  -0.9195                                     
   3    S TENSOR                                                          
   3      S11:   0.0199 S12:   0.0396 S13:   0.1329                       
   3      S21:  -0.2339 S22:  -0.0277 S23:   0.2040                       
   3      S31:   0.0415 S32:  -0.0122 S33:  -0.0085                       
   3   TLS GROUP : 3                                                      
   3    SELECTION: CHAIN 'A' AND (RESID 47 THROUGH 71 )                   
   3    ORIGIN FOR THE GROUP (A): -45.1405  14.9658  37.4919              
   3    T TENSOR                                                          
   3      T11:   0.0807 T22:   0.1259                                     
   3      T33:   0.1390 T12:  -0.0071                                     
   3      T13:   0.0068 T23:  -0.0081                                     
   3    L TENSOR                                                          
   3      L11:   2.5390 L22:   3.5381                                     
   3      L33:   2.0159 L12:  -0.8276                                     
   3      L13:   0.0745 L23:   0.4823                                     
   3    S TENSOR                                                          
   3      S11:  -0.0106 S12:  -0.1534 S13:   0.2367                       
   3      S21:   0.1930 S22:   0.1146 S23:  -0.0687                       
   3      S31:  -0.1661 S32:  -0.1212 S33:  -0.0924                       
   3   TLS GROUP : 4                                                      
   3    SELECTION: CHAIN 'A' AND (RESID 72 THROUGH 104 )                  
   3    ORIGIN FOR THE GROUP (A): -39.5818   1.8144  33.6101              
   3    T TENSOR                                                          
   3      T11:   0.1398 T22:   0.1047                                     
   3      T33:   0.1333 T12:   0.0034                                     
   3      T13:  -0.0186 T23:   0.0132                                     
   3    L TENSOR                                                          
   3      L11:   2.8785 L22:   1.6422                                     
   3      L33:   3.2901 L12:   1.5267                                     
   3      L13:  -0.0179 L23:   0.7962                                     
   3    S TENSOR                                                          
   3      S11:   0.1246 S12:  -0.0431 S13:  -0.2742                       
   3      S21:   0.3014 S22:  -0.0831 S23:  -0.0571                       
   3      S31:   0.2286 S32:   0.1928 S33:  -0.0118                       
   3   TLS GROUP : 5                                                      
   3    SELECTION: CHAIN 'A' AND (RESID 105 THROUGH 169 )                 
   3    ORIGIN FOR THE GROUP (A): -49.6615  13.5049  22.5195              
   3    T TENSOR                                                          
   3      T11:   0.0950 T22:   0.1415                                     
   3      T33:   0.1146 T12:  -0.0131                                     
   3      T13:  -0.0033 T23:  -0.0105                                     
   3    L TENSOR                                                          
   3      L11:   1.1129 L22:   2.1884                                     
   3      L33:   1.1345 L12:   0.1548                                     
   3      L13:  -0.0158 L23:  -0.7012                                     
   3    S TENSOR                                                          
   3      S11:  -0.0311 S12:   0.0254 S13:  -0.0248                       
   3      S21:   0.0224 S22:   0.0903 S23:   0.0669                       
   3      S31:   0.0183 S32:  -0.0848 S33:  -0.0621                       
   3   TLS GROUP : 6                                                      
   3    SELECTION: CHAIN 'A' AND (RESID 170 THROUGH 240 )                 
   3    ORIGIN FOR THE GROUP (A): -34.6405  17.8557  20.2583              
   3    T TENSOR                                                          
   3      T11:   0.0771 T22:   0.1224                                     
   3      T33:   0.1204 T12:  -0.0154                                     
   3      T13:   0.0043 T23:   0.0051                                     
   3    L TENSOR                                                          
   3      L11:   0.6238 L22:   1.6041                                     
   3      L33:   1.3914 L12:  -0.1649                                     
   3      L13:   0.1906 L23:   0.2863                                     
   3    S TENSOR                                                          
   3      S11:  -0.0548 S12:   0.0734 S13:   0.0718                       
   3      S21:  -0.0823 S22:   0.0066 S23:  -0.1362                       
   3      S31:  -0.0351 S32:   0.1786 S33:   0.0432                       
   3   TLS GROUP : 7                                                      
   3    SELECTION: CHAIN 'A' AND (RESID 241 THROUGH 263 )                 
   3    ORIGIN FOR THE GROUP (A): -34.3584  11.7216   7.1923              
   3    T TENSOR                                                          
   3      T11:   0.1435 T22:   0.1381                                     
   3      T33:   0.0792 T12:   0.0050                                     
   3      T13:   0.0220 T23:  -0.0128                                     
   3    L TENSOR                                                          
   3      L11:   3.9579 L22:   6.6482                                     
   3      L33:   2.4469 L12:   2.5496                                     
   3      L13:  -0.6305 L23:  -0.0571                                     
   3    S TENSOR                                                          
   3      S11:  -0.2021 S12:   0.2735 S13:  -0.2243                       
   3      S21:  -0.3789 S22:   0.3298 S23:  -0.4660                       
   3      S31:   0.0188 S32:   0.1955 S33:  -0.1165                       
   3   TLS GROUP : 8                                                      
   3    SELECTION: CHAIN 'B' AND (RESID 2 THROUGH 46 )                    
   3    ORIGIN FOR THE GROUP (A): -18.9330  54.7983   7.0141              
   3    T TENSOR                                                          
   3      T11:   0.1260 T22:   0.1321                                     
   3      T33:   0.1292 T12:   0.0185                                     
   3      T13:  -0.0136 T23:   0.0088                                     
   3    L TENSOR                                                          
   3      L11:   1.3019 L22:   1.8260                                     
   3      L33:   2.5572 L12:   0.8789                                     
   3      L13:  -0.0613 L23:   0.9260                                     
   3    S TENSOR                                                          
   3      S11:  -0.0805 S12:   0.2094 S13:   0.0849                       
   3      S21:  -0.2350 S22:   0.1534 S23:   0.0226                       
   3      S31:  -0.2326 S32:   0.0205 S33:  -0.0668                       
   3   TLS GROUP : 9                                                      
   3    SELECTION: CHAIN 'B' AND (RESID 47 THROUGH 71 )                   
   3    ORIGIN FOR THE GROUP (A): -23.5155  53.0039  37.1476              
   3    T TENSOR                                                          
   3      T11:   0.0560 T22:   0.1323                                     
   3      T33:   0.1297 T12:  -0.0196                                     
   3      T13:   0.0075 T23:   0.0106                                     
   3    L TENSOR                                                          
   3      L11:   2.7037 L22:   5.2347                                     
   3      L33:   2.7279 L12:  -0.5472                                     
   3      L13:   0.0041 L23:   1.0523                                     
   3    S TENSOR                                                          
   3      S11:   0.0026 S12:  -0.2259 S13:  -0.0079                       
   3      S21:   0.3989 S22:   0.0988 S23:   0.0472                       
   3      S31:  -0.1796 S32:  -0.1918 S33:  -0.1183                       
   3   TLS GROUP : 10                                                     
   3    SELECTION: CHAIN 'B' AND (RESID 72 THROUGH 130 )                  
   3    ORIGIN FOR THE GROUP (A): -22.4200  43.8144  32.0101              
   3    T TENSOR                                                          
   3      T11:   0.0761 T22:   0.1325                                     
   3      T33:   0.1193 T12:   0.0015                                     
   3      T13:  -0.0058 T23:   0.0008                                     
   3    L TENSOR                                                          
   3      L11:   0.0595 L22:   0.9643                                     
   3      L33:   1.0372 L12:   0.0803                                     
   3      L13:   0.1249 L23:  -0.6266                                     
   3    S TENSOR                                                          
   3      S11:   0.0282 S12:  -0.0013 S13:  -0.0145                       
   3      S21:   0.1289 S22:  -0.0480 S23:  -0.0117                       
   3      S31:  -0.0077 S32:   0.0569 S33:   0.0214                       
   3   TLS GROUP : 11                                                     
   3    SELECTION: CHAIN 'B' AND (RESID 131 THROUGH 263 )                 
   3    ORIGIN FOR THE GROUP (A): -17.4193  52.6570  17.2259              
   3    T TENSOR                                                          
   3      T11:   0.1081 T22:   0.1018                                     
   3      T33:   0.1096 T12:  -0.0144                                     
   3      T13:   0.0009 T23:  -0.0046                                     
   3    L TENSOR                                                          
   3      L11:   1.0011 L22:   0.7962                                     
   3      L33:   1.0084 L12:  -0.1939                                     
   3      L13:   0.0300 L23:   0.2048                                     
   3    S TENSOR                                                          
   3      S11:  -0.0125 S12:   0.0234 S13:  -0.0117                       
   3      S21:  -0.0592 S22:   0.0314 S23:  -0.0629                       
   3      S31:  -0.0596 S32:   0.0685 S33:  -0.0150                       
   3                                                                      
   3  NCS DETAILS                                                         
   3   NUMBER OF NCS GROUPS : NULL                                        
   3                                                                      
   3  OTHER REFINEMENT REMARKS: NULL                                      
   4                                                                      
   4 5T66 COMPLIES WITH FORMAT V. 3.30, 13-JUL-11                         
 100                                                                      
 100 THIS ENTRY HAS BEEN PROCESSED BY PDBE ON 02-SEP-16.                  
 100 THE DEPOSITION ID IS D_1000223785.                                   
 200                                                                      
 200 EXPERIMENTAL DETAILS                                                 
 200  EXPERIMENT TYPE                : X-RAY DIFFRACTION                  
 200  DATE OF DATA COLLECTION        : 15-AUG-15                          
 200  TEMPERATURE           (KELVIN) : 100                                
 200  PH                             : 7.5                                
 200  NUMBER OF CRYSTALS USED        : 1                                  
 200                                                                      
 200  SYNCHROTRON              (Y/N) : N                                  
 200  RADIATION SOURCE               : ROTATING ANODE                     
 200  BEAMLINE                       : NULL                               
 200  X-RAY GENERATOR MODEL          : RIGAKU FR-E+ SUPERBRIGHT           
 200  MONOCHROMATIC OR LAUE    (M/L) : M                                  
 200  WAVELENGTH OR RANGE        (A) : 1.54                               
 200  MONOCHROMATOR                  : NULL                               
 200  OPTICS                         : OSMIC HF MIRRORS                   
 200                                                                      
 200  DETECTOR TYPE                  : CCD                                
 200  DETECTOR MANUFACTURER          : RIGAKU SATURN 944+                 
 200  INTENSITY-INTEGRATION SOFTWARE : HKL-3000                           
 200  DATA SCALING SOFTWARE          : HKL-3000                           
 200                                                                      
 200  NUMBER OF UNIQUE REFLECTIONS   : 36639                              
 200  RESOLUTION RANGE HIGH      (A) : 1.950                              
 200  RESOLUTION RANGE LOW       (A) : 21.680                             
 200  REJECTION CRITERIA  (SIGMA(I)) : 3.000                              
 200                                                                      
 200 OVERALL.                                                             
 200  COMPLETENESS FOR RANGE     (%) : 99.0                               
 200  DATA REDUNDANCY                : 5.300                              
 200  R MERGE                    (I) : 0.12400                            
 200  R SYM                      (I) : NULL                               
 200  <I/SIGMA(I)> FOR THE DATA SET  : 5.3000                             
 200                                                                      
 200 IN THE HIGHEST RESOLUTION SHELL.                                     
 200  HIGHEST RESOLUTION SHELL, RANGE HIGH (A) : 1.95                     
 200  HIGHEST RESOLUTION SHELL, RANGE LOW  (A) : 2.02                     
 200  COMPLETENESS FOR SHELL     (%) : NULL                               
 200  DATA REDUNDANCY IN SHELL       : NULL                               
 200  R MERGE FOR SHELL          (I) : NULL                               
 200  R SYM FOR SHELL            (I) : NULL                               
 200  <I/SIGMA(I)> FOR SHELL         : NULL                               
 200                                                                      
 200 DIFFRACTION PROTOCOL: SINGLE WAVELENGTH                              
 200 METHOD USED TO DETERMINE THE STRUCTURE: MOLECULAR REPLACEMENT        
 200 SOFTWARE USED: PHASER                                                
 200 STARTING MODEL: 4HBT                                                 
 200                                                                      
 200 REMARK: NULL                                                         
 280                                                                      
 280 CRYSTAL                                                              
 280 SOLVENT CONTENT, VS   (%): 39.04                                     
 280 MATTHEWS COEFFICIENT, VM (ANGSTROMS**3/DA): 2.02                     
 280                                                                      
 280 CRYSTALLIZATION CONDITIONS: 0.1 M HEPES, PH 7.5, 70% V/V 2,4         
 280  -METHYL PENTANEDIOL, VAPOR DIFFUSION, SITTING DROP, TEMPERATURE     
 280  298K                                                                
 290                                                                      
 290 CRYSTALLOGRAPHIC SYMMETRY                                            
 290 SYMMETRY OPERATORS FOR SPACE GROUP: P 2 21 21                        
 290                                                                      
 290      SYMOP   SYMMETRY                                                
 290     NNNMMM   OPERATOR                                                
 290       1555   X,Y,Z                                                   
 290       2555   X,-Y,-Z                                                 
 290       3555   -X,Y+1/2,-Z+1/2                                         
 290       4555   -X,-Y+1/2,Z+1/2                                         
 290                                                                      
 290     WHERE NNN -> OPERATOR NUMBER                                     
 290           MMM -> TRANSLATION VECTOR                                  
 290                                                                      
 290 CRYSTALLOGRAPHIC SYMMETRY TRANSFORMATIONS                            
 290 THE FOLLOWING TRANSFORMATIONS OPERATE ON THE ATOM/HETATM             
 290 RECORDS IN THIS ENTRY TO PRODUCE CRYSTALLOGRAPHICALLY                
 290 RELATED MOLECULES.                                                   
 290   SMTRY1   1  1.000000  0.000000  0.000000        0.00000            
 290   SMTRY2   1  0.000000  1.000000  0.000000        0.00000            
 290   SMTRY3   1  0.000000  0.000000  1.000000        0.00000            
 290   SMTRY1   2  1.000000  0.000000  0.000000        0.00000            
 290   SMTRY2   2  0.000000 -1.000000  0.000000        0.00000            
 290   SMTRY3   2  0.000000  0.000000 -1.000000        0.00000            
 290   SMTRY1   3 -1.000000  0.000000  0.000000        0.00000            
 290   SMTRY2   3  0.000000  1.000000  0.000000       38.05300            
 290   SMTRY3   3  0.000000  0.000000 -1.000000       74.68750            
 290   SMTRY1   4 -1.000000  0.000000  0.000000        0.00000            
 290   SMTRY2   4  0.000000 -1.000000  0.000000       38.05300            
 290   SMTRY3   4  0.000000  0.000000  1.000000       74.68750            
 290                                                                      
 290 REMARK: NULL                                                         
 300                                                                      
 300 BIOMOLECULE: 1, 2                                                    
 300 SEE REMARK 350 FOR THE AUTHOR PROVIDED AND/OR PROGRAM                
 300 GENERATED ASSEMBLY INFORMATION FOR THE STRUCTURE IN                  
 300 THIS ENTRY. THE REMARK MAY ALSO PROVIDE INFORMATION ON               
 300 BURIED SURFACE AREA.                                                 
 350                                                                      
 350 COORDINATES FOR A COMPLETE MULTIMER REPRESENTING THE KNOWN           
 350 BIOLOGICALLY SIGNIFICANT OLIGOMERIZATION STATE OF THE                
 350 MOLECULE CAN BE GENERATED BY APPLYING BIOMT TRANSFORMATIONS          
 350 GIVEN BELOW.  BOTH NON-CRYSTALLOGRAPHIC AND                          
 350 CRYSTALLOGRAPHIC OPERATIONS ARE GIVEN.                               
 350                                                                      
 350 BIOMOLECULE: 1                                                       
 350 AUTHOR DETERMINED BIOLOGICAL UNIT: MONOMERIC                         
 350 SOFTWARE DETERMINED QUATERNARY STRUCTURE: MONOMERIC                  
 350 SOFTWARE USED: PISA                                                  
 350 APPLY THE FOLLOWING TO CHAINS: A                                     
 350   BIOMT1   1  1.000000  0.000000  0.000000        0.00000            
 350   BIOMT2   1  0.000000  1.000000  0.000000        0.00000            
 350   BIOMT3   1  0.000000  0.000000  1.000000        0.00000            
 350                                                                      
 350 BIOMOLECULE: 2                                                       
 350 AUTHOR DETERMINED BIOLOGICAL UNIT: MONOMERIC                         
 350 SOFTWARE DETERMINED QUATERNARY STRUCTURE: MONOMERIC                  
 350 SOFTWARE USED: PISA                                                  
 350 APPLY THE FOLLOWING TO CHAINS: B                                     
 350   BIOMT1   1  1.000000  0.000000  0.000000        0.00000            
 350   BIOMT2   1  0.000000  1.000000  0.000000        0.00000            
 350   BIOMT3   1  0.000000  0.000000  1.000000        0.00000            
 375                                                                      
 375 SPECIAL POSITION                                                     
 375 THE FOLLOWING ATOMS ARE FOUND TO BE WITHIN 0.15 ANGSTROMS            
 375 OF A SYMMETRY RELATED ATOM AND ARE ASSUMED TO BE ON SPECIAL          
 375 POSITIONS.                                                           
 375                                                                      
 375 ATOM RES CSSEQI                                                      
 375      HOH B 545  LIES ON A SPECIAL POSITION.                          
 465                                                                      
 465 MISSING RESIDUES                                                     
 465 THE FOLLOWING RESIDUES WERE NOT LOCATED IN THE                       
 465 EXPERIMENT. (M=MODEL NUMBER; RES=RESIDUE NAME; C=CHAIN               
 465 IDENTIFIER; SSSEQ=SEQUENCE NUMBER; I=INSERTION CODE.)                
 465                                                                      
 465   M RES C SSSEQI                                                     
 465     MET A     1                                                      
 465     VAL A     2                                                      
 465     LYS A     3                                                      
 465     LYS A     4                                                      
 465     SER A     5                                                      
 465     LEU A     6                                                      
 465     ARG A     7                                                      
 465     GLN A     8                                                      
 465     PHE A     9                                                      
 465     THR A    10                                                      
 465     LEU A    11                                                      
 465     MET A    12                                                      
 465     ALA A    13                                                      
 465     THR A    14                                                      
 465     ALA A    15                                                      
 465     THR A    16                                                      
 465     VAL A    17                                                      
 465     THR A    18                                                      
 465     LEU A    19                                                      
 465     LEU A    20                                                      
 465     LEU A    21                                                      
 465     GLY A    22                                                      
 465     SER A    23                                                      
 465     VAL A    24                                                      
 465     PRO A    25                                                      
 465     LEU A    26                                                      
 465     TYR A    27                                                      
 465     ALA A    28                                                      
 465     GLN A    29                                                      
 465     MET B     1                                                      
 465     VAL B     2                                                      
 465     LYS B     3                                                      
 465     LYS B     4                                                      
 465     SER B     5                                                      
 465     LEU B     6                                                      
 465     ARG B     7                                                      
 465     GLN B     8                                                      
 465     PHE B     9                                                      
 465     THR B    10                                                      
 465     LEU B    11                                                      
 465     MET B    12                                                      
 465     ALA B    13                                                      
 465     THR B    14                                                      
 465     ALA B    15                                                      
 465     THR B    16                                                      
 465     VAL B    17                                                      
 465     THR B    18                                                      
 465     LEU B    19                                                      
 465     LEU B    20                                                      
 465     LEU B    21                                                      
 465     GLY B    22                                                      
 465     SER B    23                                                      
 465     VAL B    24                                                      
 465     PRO B    25                                                      
 465     LEU B    26                                                      
 465     TYR B    27                                                      
 465     ALA B    28                                                      
 465     GLN B    29                                                      
 470                                                                      
 470 MISSING ATOM                                                         
 470 THE FOLLOWING RESIDUES HAVE MISSING ATOMS (M=MODEL NUMBER;           
 470 RES=RESIDUE NAME; C=CHAIN IDENTIFIER; SSEQ=SEQUENCE NUMBER;          
 470 I=INSERTION CODE):                                                   
 470   M RES CSSEQI  ATOMS                                                
 470     THR A  30    N    CA   CB   OG1  CG2                             
 470     ASP A  32    OD1  OD2                                            
 470     GLN A  34    CG   CD   OE1  NE2                                  
 470     GLN A  35    CD   OE1  NE2                                       
 470     LYS A  36    CE   NZ                                             
 470     LYS A 101    CE   NZ                                             
 470     LYS A 102    CD   CE   NZ                                        
 470     ASN A 117    CG   OD1  ND2                                       
 470     GLU A 161    CD   OE1  OE2                                       
 470     LYS A 200    CE   NZ                                             
 470     LYS A 255    CD   CE   NZ                                        
 470     ARG A 257    NE   CZ   NH1  NH2                                  
 470     LYS A 272    CD   CE   NZ                                        
 470     GLU A 274    CG   CD   OE1  OE2                                  
 470     LYS A 285    CE   NZ                                             
 470     LEU A 291    CG   CD1  CD2                                       
 470     THR B  30    N    CA   CB   OG1  CG2                             
 470     ASP B  32    CG   OD1  OD2                                       
 470     GLN B  34    CG   CD   OE1  NE2                                  
 470     GLN B  35    CD   OE1  NE2                                       
 470     LYS B 101    CE   NZ                                             
 470     VAL B 116    CG1  CG2                                            
 470     GLU B 161    CG   CD   OE1  OE2                                  
 470     LYS B 200    NZ                                                  
 470     LYS B 255    CG   CD   CE   NZ                                   
 470     ARG B 257    CG   CD   NE   CZ   NH1  NH2                        
 470     LYS B 272    CD   CE   NZ                                        
 470     GLU B 274    CG   CD   OE1  OE2                                  
 470     LYS B 285    CD   CE   NZ                                        
 470     LEU B 291    CD1  CD2                                            
 500                                                                      
 500 GEOMETRY AND STEREOCHEMISTRY                                         
 500 SUBTOPIC: CLOSE CONTACTS IN SAME ASYMMETRIC UNIT                     
 500                                                                      
 500 THE FOLLOWING ATOMS ARE IN CLOSE CONTACT.                            
 500                                                                      
 500  ATM1  RES C  SSEQI   ATM2  RES C  SSEQI           DISTANCE          
 500   O    HOH B   565     O    HOH B   614              1.95            
 500   O    HOH A   411     O    HOH A   536              2.00            
 500   O    HOH B   473     O    HOH B   583              2.01            
 500   O    HOH A   579     O    HOH B   474              2.02            
 500   O    HOH A   443     O    HOH A   563              2.04            
 500   O    HOH A   583     O    HOH A   592              2.06            
 500   O    HOH A   564     O    HOH A   590              2.07            
 500   O    HOH A   553     O    HOH A   584              2.07            
 500   O    HOH B   528     O    HOH B   622              2.07            
 500   O    HOH A   533     O    HOH A   545              2.08            
 500   O    HOH A   403     O    HOH A   611              2.09            
 500   O    HOH A   580     O    HOH A   595              2.10            
 500   O    HOH B   558     O    HOH B   584              2.11            
 500   O    HOH A   548     O    HOH A   566              2.11            
 500   O    HOH A   568     O    HOH A   646              2.12            
 500   O    HOH B   610     O    HOH B   624              2.13            
 500   O    HOH A   530     O    HOH A   647              2.14            
 500   O    HOH B   513     O    HOH B   612              2.15            
 500   O    HOH A   502     O    HOH A   573              2.16            
 500   O    HOH A   538     O    HOH A   625              2.16            
 500   O    HOH A   450     O    HOH A   606              2.17            
 500   O    HOH A   537     O    HOH A   612              2.17            
 500   O    HOH A   412     O    HOH A   622              2.18            
 500   O    HOH A   402     O    HOH A   611              2.18            
 500   OD1  ASP A   256     O    HOH A   401              2.19            
 500   O    HOH B   571     O    HOH B   578              2.19            
 500                                                                      
 500 REMARK: NULL                                                         
 500                                                                      
 500 GEOMETRY AND STEREOCHEMISTRY                                         
 500 SUBTOPIC: CLOSE CONTACTS                                             
 500                                                                      
 500 THE FOLLOWING ATOMS THAT ARE RELATED BY CRYSTALLOGRAPHIC             
 500 SYMMETRY ARE IN CLOSE CONTACT.  AN ATOM LOCATED WITHIN 0.15          
 500 ANGSTROMS OF A SYMMETRY RELATED ATOM IS ASSUMED TO BE ON A           
 500 SPECIAL POSITION AND IS, THEREFORE, LISTED IN REMARK 375             
 500 INSTEAD OF REMARK 500.  ATOMS WITH NON-BLANK ALTERNATE               
 500 LOCATION INDICATORS ARE NOT INCLUDED IN THE CALCULATIONS.            
 500                                                                      
 500 DISTANCE CUTOFF:                                                     
 500 2.2 ANGSTROMS FOR CONTACTS NOT INVOLVING HYDROGEN ATOMS              
 500 1.6 ANGSTROMS FOR CONTACTS INVOLVING HYDROGEN ATOMS                  
 500                                                                      
 500  ATM1  RES C  SSEQI   ATM2  RES C  SSEQI  SSYMOP   DISTANCE          
 500   O    HOH B   622     O    HOH B   622     2565     1.96            
 500   O    HOH A   543     O    HOH B   406     3445     2.01            
 500   O    HOH A   601     O    HOH B   619     3445     2.03            
 500   O    HOH A   597     O    HOH B   497     3345     2.10            
 500   O    HOH A   587     O    HOH B   559     2565     2.14            
 500                                                                      
 500 REMARK: NULL                                                         
 500                                                                      
 500 GEOMETRY AND STEREOCHEMISTRY                                         
 500 SUBTOPIC: TORSION ANGLES                                             
 500                                                                      
 500 TORSION ANGLES OUTSIDE THE EXPECTED RAMACHANDRAN REGIONS:            
 500 (M=MODEL NUMBER; RES=RESIDUE NAME; C=CHAIN IDENTIFIER;               
 500 SSEQ=SEQUENCE NUMBER; I=INSERTION CODE).                             
 500                                                                      
 500 STANDARD TABLE:                                                      
 500 FORMAT:(10X,I3,1X,A3,1X,A1,I4,A1,4X,F7.2,3X,F7.2)                    
 500                                                                      
 500 EXPECTED VALUES: GJ KLEYWEGT AND TA JONES (1996). PHI/PSI-           
 500 CHOLOGY: RAMACHANDRAN REVISITED. STRUCTURE 4, 1395 - 1400            
 500                                                                      
 500  M RES CSSEQI        PSI       PHI                                   
 500    CYS A  72     -143.02     48.24                                   
 500    VAL A 106     -133.64   -120.73                                   
 500    SER A 223     -124.12   -106.02                                   
 500    CYS B  72     -137.06     48.47                                   
 500    VAL B 106     -133.15   -122.49                                   
 500    SER B 223     -123.84   -105.77                                   
 500                                                                      
 500 REMARK: NULL                                                         
 525                                                                      
 525 SOLVENT                                                              
 525                                                                      
 525 THE SOLVENT MOLECULES HAVE CHAIN IDENTIFIERS THAT                    
 525 INDICATE THE POLYMER CHAIN WITH WHICH THEY ARE MOST                  
 525 CLOSELY ASSOCIATED. THE REMARK LISTS ALL THE SOLVENT                 
 525 MOLECULES WHICH ARE MORE THAN 5A AWAY FROM THE                       
 525 NEAREST POLYMER CHAIN (M = MODEL NUMBER;                             
 525 RES=RESIDUE NAME; C=CHAIN IDENTIFIER; SSEQ=SEQUENCE                  
 525 NUMBER; I=INSERTION CODE):                                           
 525                                                                      
 525  M RES CSSEQI                                                        
 525    HOH A 664        DISTANCE =  5.93 ANGSTROMS                       
 525    HOH A 665        DISTANCE =  7.40 ANGSTROMS                       
 525    HOH A 666        DISTANCE =  8.02 ANGSTROMS                       
 525    HOH B 658        DISTANCE =  8.18 ANGSTROMS                       
 800                                                                      
 800 SITE                                                                 
 800 SITE_IDENTIFIER: AC1                                                 
 800 EVIDENCE_CODE: SOFTWARE                                              
 800 SITE_DESCRIPTION: binding site for residue C6S A 300                 
 800                                                                      
 800 SITE_IDENTIFIER: AC2                                                 
 800 EVIDENCE_CODE: SOFTWARE                                              
 800 SITE_DESCRIPTION: binding site for Di-peptide C6S B 300 and SER B    
 800  73                                                                  
 900                                                                      
 900 RELATED ENTRIES                                                      
 900 RELATED ID: 5FQB   RELATED DB: PDB                                   
 900 SAME LIGAND COMPLEXED WITH BCII                                      
 900 RELATED ID: 5FQC   RELATED DB: PDB                                   
 900 SAME LIGAND COMPLEXED WITH VIM-2                                     
 900 RELATED ID: 5FQ9   RELATED DB: PDB                                   
 900 SAME LIGAND COMPLEXED WITH OXA-10                                    
 900 RELATED ID: 5J8X   RELATED DB: PDB                                   
 900 SAME LIGAND COMPLEXED WITH PBP-5                                     

>  <DBREF>
 5T66 A    1   291  UNP    G3G192   G3G192_KLEPN    21    311             
 5T66 B    1   291  UNP    G3G192   G3G192_KLEPN    21    311             

>  <SEQRES>
   1 A  291  MET VAL LYS LYS SER LEU ARG GLN PHE THR LEU MET ALA          
   2 A  291  THR ALA THR VAL THR LEU LEU LEU GLY SER VAL PRO LEU          
   3 A  291  TYR ALA GLN THR ALA ASP VAL GLN GLN LYS LEU ALA GLU          
   4 A  291  LEU GLU ARG GLN SER GLY GLY ARG LEU GLY VAL ALA LEU          
   5 A  291  ILE ASN THR ALA ASP ASN SER GLN ILE LEU TYR ARG ALA          
   6 A  291  ASP GLU ARG PHE ALA MET CYS SER THR SER LYS VAL MET          
   7 A  291  ALA ALA ALA ALA VAL LEU LYS LYS SER GLU SER GLU PRO          
   8 A  291  ASN LEU LEU ASN GLN ARG VAL GLU ILE LYS LYS SER ASP          
   9 A  291  LEU VAL ASN TYR ASN PRO ILE ALA GLU LYS HIS VAL ASN          
  10 A  291  GLY THR MET SER LEU ALA GLU LEU SER ALA ALA ALA LEU          
  11 A  291  GLN TYR SER ASP ASN VAL ALA MET ASN LYS LEU ILE ALA          
  12 A  291  HIS VAL GLY GLY PRO ALA SER VAL THR ALA PHE ALA ARG          
  13 A  291  GLN LEU GLY ASP GLU THR PHE ARG LEU ASP ARG THR GLU          
  14 A  291  PRO THR LEU ASN THR ALA ILE PRO GLY ASP PRO ARG ASP          
  15 A  291  THR THR SER PRO ARG ALA MET ALA GLN THR LEU ARG ASN          
  16 A  291  LEU THR LEU GLY LYS ALA LEU GLY ASP SER GLN ARG ALA          
  17 A  291  GLN LEU VAL THR TRP MET LYS GLY ASN THR THR GLY ALA          
  18 A  291  ALA SER ILE GLN ALA GLY LEU PRO ALA SER TRP VAL VAL          
  19 A  291  GLY ASP LYS THR GLY SER GLY GLY TYR GLY THR THR ASN          
  20 A  291  ASP ILE ALA VAL ILE TRP PRO LYS ASP ARG ALA PRO LEU          
  21 A  291  ILE LEU VAL THR TYR PHE THR GLN PRO GLN PRO LYS ALA          
  22 A  291  GLU SER ARG ARG ASP VAL LEU ALA SER ALA ALA LYS ILE          
  23 A  291  VAL THR ASP GLY LEU                                          
   1 B  291  MET VAL LYS LYS SER LEU ARG GLN PHE THR LEU MET ALA          
   2 B  291  THR ALA THR VAL THR LEU LEU LEU GLY SER VAL PRO LEU          
   3 B  291  TYR ALA GLN THR ALA ASP VAL GLN GLN LYS LEU ALA GLU          
   4 B  291  LEU GLU ARG GLN SER GLY GLY ARG LEU GLY VAL ALA LEU          
   5 B  291  ILE ASN THR ALA ASP ASN SER GLN ILE LEU TYR ARG ALA          
   6 B  291  ASP GLU ARG PHE ALA MET CYS SER THR SER LYS VAL MET          
   7 B  291  ALA ALA ALA ALA VAL LEU LYS LYS SER GLU SER GLU PRO          
   8 B  291  ASN LEU LEU ASN GLN ARG VAL GLU ILE LYS LYS SER ASP          
   9 B  291  LEU VAL ASN TYR ASN PRO ILE ALA GLU LYS HIS VAL ASN          
  10 B  291  GLY THR MET SER LEU ALA GLU LEU SER ALA ALA ALA LEU          
  11 B  291  GLN TYR SER ASP ASN VAL ALA MET ASN LYS LEU ILE ALA          
  12 B  291  HIS VAL GLY GLY PRO ALA SER VAL THR ALA PHE ALA ARG          
  13 B  291  GLN LEU GLY ASP GLU THR PHE ARG LEU ASP ARG THR GLU          
  14 B  291  PRO THR LEU ASN THR ALA ILE PRO GLY ASP PRO ARG ASP          
  15 B  291  THR THR SER PRO ARG ALA MET ALA GLN THR LEU ARG ASN          
  16 B  291  LEU THR LEU GLY LYS ALA LEU GLY ASP SER GLN ARG ALA          
  17 B  291  GLN LEU VAL THR TRP MET LYS GLY ASN THR THR GLY ALA          
  18 B  291  ALA SER ILE GLN ALA GLY LEU PRO ALA SER TRP VAL VAL          
  19 B  291  GLY ASP LYS THR GLY SER GLY GLY TYR GLY THR THR ASN          
  20 B  291  ASP ILE ALA VAL ILE TRP PRO LYS ASP ARG ALA PRO LEU          
  21 B  291  ILE LEU VAL THR TYR PHE THR GLN PRO GLN PRO LYS ALA          
  22 B  291  GLU SER ARG ARG ASP VAL LEU ALA SER ALA ALA LYS ILE          
  23 B  291  VAL THR ASP GLY LEU                                          

>  <HET>
 C6S  A 300      23                                                       
 C6S  B 300      23                                                       

>  <HETNAM>
     C6S (3R)-3-(CYCLOHEXYLCARBONYLAMINO)-2-OXIDANYL-3,4-                 
   2 C6S  DIHYDRO-1,2-BENZOXABORININE-8-CARBOXYLIC ACID                   

>  <FORMUL>
   3  C6S    2(C16 H20 B N O5)                                            
   5  HOH   *524(H2 O)                                                    

>  <HELIX>
   1 AA1 ALA A   31  GLY A   45  1                                  15    
   2 AA2 CYS A   72  THR A   74  5                                   3    
   3 AA3 SER A   75  GLU A   88  1                                  14    
   4 AA4 ASN A   92  ASN A   95  5                                   4    
   5 AA5 LYS A  101  LEU A  105  5                                   5    
   6 AA6 ILE A  111  VAL A  116  5                                   6    
   7 AA7 LEU A  122  SER A  133  1                                  12    
   8 AA8 ASP A  134  VAL A  145  1                                  12    
   9 AA9 GLY A  147  LEU A  158  1                                  12    
  10 AB1 PRO A  170  THR A  174  5                                   5    
  11 AB2 SER A  185  LEU A  198  1                                  14    
  12 AB3 GLY A  203  GLY A  216  1                                  14    
  13 AB4 SER A  223  LEU A  228  5                                   6    
  14 AB5 ARG A  276  ASP A  289  1                                  14    
  15 AB6 ALA B   31  GLY B   45  1                                  15    
  16 AB7 CYS B   72  THR B   74  5                                   3    
  17 AB8 SER B   75  GLU B   88  1                                  14    
  18 AB9 ASN B   92  ASN B   95  5                                   4    
  19 AC1 LYS B  101  LEU B  105  5                                   5    
  20 AC2 ILE B  111  VAL B  116  5                                   6    
  21 AC3 LEU B  122  SER B  133  1                                  12    
  22 AC4 ASP B  134  VAL B  145  1                                  12    
  23 AC5 GLY B  147  LEU B  158  1                                  12    
  24 AC6 PRO B  170  THR B  174  5                                   5    
  25 AC7 SER B  185  LEU B  198  1                                  14    
  26 AC8 GLY B  203  GLY B  216  1                                  14    
  27 AC9 SER B  223  LEU B  228  5                                   6    
  28 AD1 ARG B  276  ASP B  289  1                                  14    

>  <SHEET>
   1 AA1 5 GLN A  60  TYR A  63  0                                        
   2 AA1 5 ARG A  47  ASN A  54 -1  N  VAL A  50   O  TYR A  63           
   3 AA1 5 LEU A 260  THR A 267 -1  O  TYR A 265   N  GLY A  49           
   4 AA1 5 THR A 246  TRP A 253 -1  N  ILE A 252   O  LEU A 260           
   5 AA1 5 VAL A 233  SER A 240 -1  N  GLY A 235   O  VAL A 251           
   1 AA2 2 PHE A  69  ALA A  70  0                                        
   2 AA2 2 THR A 183  THR A 184 -1  O  THR A 184   N  PHE A  69           
   1 AA3 2 ARG A  97  ILE A 100  0                                        
   2 AA3 2 GLY A 118  SER A 121 -1  O  MET A 120   N  VAL A  98           
   1 AA4 5 GLN B  60  TYR B  63  0                                        
   2 AA4 5 ARG B  47  ASN B  54 -1  N  VAL B  50   O  TYR B  63           
   3 AA4 5 LEU B 260  THR B 267 -1  O  TYR B 265   N  GLY B  49           
   4 AA4 5 THR B 245  TRP B 253 -1  N  ILE B 252   O  LEU B 260           
   5 AA4 5 VAL B 233  GLY B 241 -1  N  VAL B 233   O  TRP B 253           
   1 AA5 2 PHE B  69  ALA B  70  0                                        
   2 AA5 2 THR B 183  THR B 184 -1  O  THR B 184   N  PHE B  69           
   1 AA6 2 ARG B  97  ILE B 100  0                                        
   2 AA6 2 GLY B 118  SER B 121 -1  O  GLY B 118   N  ILE B 100           

>  <LINK>
       OG  SER A  73                 B02 C6S A 300     1555   1555  1.39  
       OG  SER B  73                 B02 C6S B 300     1555   1555  1.39  

>  <CISPEP>
   1 GLU A  169    PRO A  170          0         2.35                     
   2 GLU B  169    PRO B  170          0         2.44                     

>  <SITE>
   1 AC1 12 CYS A  72  SER A  73  ASN A 107  TYR A 108                    
   2 AC1 12 SER A 133  ASN A 135  ASN A 173  LYS A 237                    
   3 AC1 12 THR A 238  GLY A 239  SER A 240  HOH A 487                    
   1 AC2 16 MET B  71  CYS B  72  THR B  74  SER B  75                    
   2 AC2 16 LYS B  76  ASN B 107  TYR B 108  SER B 133                    
   3 AC2 16 ASN B 135  ASN B 173  LYS B 237  THR B 238                    
   4 AC2 16 GLY B 239  SER B 240  HOH B 412  HOH B 487                    

>  <ORIGX1>
      1.000000  0.000000  0.000000        0.00000                         

>  <ORIGX2>
      0.000000  1.000000  0.000000        0.00000                         

>  <ORIGX3>
      0.000000  0.000000  1.000000        0.00000                         

>  <SCALE1>
      0.023008  0.000000  0.000000        0.00000                         

>  <SCALE2>
      0.000000  0.013140  0.000000        0.00000                         

>  <SCALE3>
      0.000000  0.000000  0.006695        0.00000                         

>  <ANISOU>
  316  N   SER A  73     1851   2032   1749   -192    -55    -52       N  
  317  CA  SER A  73     1490   1860   1472   -271    -19     -8       C  
  318  C   SER A  73     1454   1904   1423   -263     66    -52       C  
  319  O   SER A  73     1175   1768   1181   -346     94    -29       O  
  320  CB  SER A  73     1515   1862   1550   -267    -29     79       C  
  321  OG  SER A  73     1418   1703   1490   -300   -118    127       O  
 3868  O01 C6S A 300     1773   1697   1700   -122   -113     48       O  
 3869  B02 C6S A 300     1635   1718   1690   -208   -135    137       B  
 3870  O03 C6S A 300     1608   1710   1723   -157    -75    183       O  
 3871  C04 C6S A 300     1731   1701   1919    -91    -90    237       C  
 3872  C05 C6S A 300     1760   1681   2019   -147   -188    296       C  
 3873  C06 C6S A 300     1664   1709   1908   -289   -275    305       C  
 3874  C07 C6S A 300     1680   1701   1783   -268   -246    193       C  
 3875  N08 C6S A 300     1833   1581   1822   -178   -270    131       N  
 3876  C09 C6S A 300     1967   1569   1950   -219   -383    160       C  
 3877  O10 C6S A 300     1855   1570   1939   -326   -464    244       O  
 3878  C11 C6S A 300     2268   1548   2083   -130   -396     75       C  
 3879  C12 C6S A 300     2486   1652   2245   -217   -531     91       C  
 3880  C13 C6S A 300     2791   1627   2350   -148   -541      2       C  
 3881  C14 C6S A 300     3014   1636   2578    -27   -469    -26       C  
 3882  C15 C6S A 300     2845   1626   2513     63   -331    -20       C  
 3883  C16 C6S A 300     2466   1575   2322    -20   -341     80       C  
 3884  C17 C6S A 300     1914   1682   2265    -72   -201    345       C  
 3885  C18 C6S A 300     1982   1669   2357     64    -99    332       C  
 3886  C19 C6S A 300     2024   1788   2318    110      0    279       C  
 3887  C20 C6S A 300     1860   1752   2058     31     -2    233       C  
 3888  C21 C6S A 300     1909   1866   2030     76     92    185       C  
 3889  O22 C6S A 300     2098   1914   2100    177    149    107       O  
 3890  O23 C6S A 300     1745   1893   1911     -3    105    227       O  

>  <MASTER>
      603    0    2   28   18    0    7    6 4404    2   48   46          

$$$$
