start_structures/Ligand_Substrate/Ligand_Complex_Stripped/C9P_3BM6.pdb
 OpenBabel08222315203D

 36 38  0  0  1  0  0  0  0  0999 V2000
   70.4900    1.7300   27.9280 N   0  0  0  0  0  0  0  0  0  0  0  0
   69.1100    2.1620   27.7240 C   0  0  2  0  0  0  0  0  0  0  0  0
   68.2710    1.2190   26.8690 C   0  0  0  0  0  0  0  0  0  0  0  0
   67.1000    1.5060   26.6470 O   0  0  0  0  0  0  0  0  0  0  0  0
   69.0050    3.5540   27.1400 C   0  0  0  0  0  0  0  0  0  0  0  0
   69.7650    4.4430   27.9320 O   0  0  0  0  0  0  0  0  0  0  0  0
   71.5070    6.0210   28.7170 C   0  0  0  0  0  0  0  0  0  0  0  0
   72.7500    5.5840   32.3770 N   0  0  0  0  0  0  0  0  0  0  0  0
   75.1540    8.1210   26.9730 C   0  0  0  0  0  0  0  0  0  0  0  0
   74.2120    9.1680   26.5730 C   0  0  0  0  0  0  0  0  0  0  0  0
   74.2010   10.4560   27.2790 C   0  0  0  0  0  0  0  0  0  0  0  0
   75.1220   10.7060   28.3780 C   0  0  0  0  0  0  0  0  0  0  0  0
   76.0700    9.6680   28.7870 C   0  0  0  0  0  0  0  0  0  0  0  0
   76.8370    6.6020   30.1970 C   0  0  0  0  0  0  0  0  0  0  0  0
   75.6430    5.8430   30.4870 C   0  0  0  0  0  0  0  0  0  0  0  0
   72.0320    4.1360   27.1770 O   0  0  0  0  0  0  0  0  0  0  0  0
   71.8550    5.4130   29.9850 C   0  0  0  0  0  0  0  0  0  0  0  0
   72.3830    6.2330   31.0760 C   0  0  0  0  0  0  0  0  0  0  0  0
   72.5640    7.6840   30.8560 C   0  0  0  0  0  0  0  0  0  0  0  0
   74.4930    4.6490   33.9880 O   0  0  0  0  0  0  0  0  0  0  0  0
   75.5250    5.5890   31.8080 C   0  0  0  0  0  0  0  0  0  0  0  0
   72.2030    8.2580   29.6020 C   0  0  0  0  0  0  0  0  0  0  0  0
   76.9940    5.9460   27.6920 O   0  0  0  0  0  0  0  0  0  0  0  0
   71.6800    7.4450   28.5420 C   0  0  0  0  0  0  0  0  0  0  0  0
   77.5650    6.8860   31.2900 C   0  0  0  0  0  0  0  0  0  0  0  0
   74.0440    3.4240   31.8950 O   0  0  0  0  0  0  0  0  0  0  0  0
   73.1390    8.5260   31.9720 C   0  0  0  0  0  0  0  0  0  0  0  0
   73.4990    8.1070   33.1370 O   0  0  0  0  0  0  0  0  0  0  0  0
   74.2020    4.6940   32.5780 S   0  0  0  0  0  0  0  0  0  0  0  0
   73.2930    9.7720   31.7290 O   0  0  0  0  0  0  0  0  0  0  0  0
   70.6700    5.9540   26.3240 O   0  0  0  0  0  0  0  0  0  0  0  0
   77.2610    7.0850   28.5860 S   0  0  0  0  0  0  0  0  0  0  0  0
   76.8440    6.2470   32.7790 S   0  0  0  0  0  0  0  0  0  0  0  0
   78.4720    7.8000   28.6040 O   0  0  0  0  0  0  0  0  0  0  0  0
   76.0990    8.3500   28.0850 C   0  0  0  0  0  0  0  0  0  0  0  0
   70.9690    5.1450   27.5240 B   0  0  0  0  0  0  0  0  0  0  0  0
  2  1  1  6  0  0  0
  3  2  1  0  0  0  0
  4  3  2  0  0  0  0
  5  2  1  0  0  0  0
  5  6  1  0  0  0  0
  6 36  1  0  0  0  0
  7 17  2  0  0  0  0
  7 24  1  0  0  0  0
  7 36  1  0  0  0  0
  8 18  1  0  0  0  0
  8 29  1  0  0  0  0
  9 10  2  0  0  0  0
  9 35  1  0  0  0  0
 10 11  1  0  0  0  0
 11 12  2  0  0  0  0
 12 13  1  0  0  0  0
 13 35  2  0  0  0  0
 14 15  1  0  0  0  0
 14 25  2  0  0  0  0
 14 32  1  0  0  0  0
 15 21  2  0  0  0  0
 16 36  1  0  0  0  0
 17 18  1  0  0  0  0
 18 19  2  0  0  0  0
 19 22  1  0  0  0  0
 19 27  1  0  0  0  0
 20 29  2  0  0  0  0
 21 29  1  0  0  0  0
 21 33  1  0  0  0  0
 22 24  2  0  0  0  0
 23 32  2  0  0  0  0
 25 33  1  0  0  0  0
 26 29  2  0  0  0  0
 27 28  2  0  0  0  0
 27 30  1  0  0  0  0
 31 36  1  0  0  0  0
 32 34  2  0  0  0  0
 32 35  1  0  0  0  0
M  END
>  <HEADER>
    HYDROLASE                               12-DEC-07   3BM6              

>  <TITLE>
    AMPC BETA-LACTAMASE IN COMPLEX WITH A P.CARBOXYPHENYLBORONIC ACID     

>  <COMPND>
    MOL_ID: 1;                                                            
   2 MOLECULE: BETA-LACTAMASE;                                            
   3 CHAIN: A, B;                                                         
   4 SYNONYM: CEPHALOSPORINASE;                                           
   5 EC: 3.5.2.6;                                                         
   6 ENGINEERED: YES                                                      

>  <SOURCE>
    MOL_ID: 1;                                                            
   2 ORGANISM_SCIENTIFIC: ESCHERICHIA COLI;                               
   3 ORGANISM_TAXID: 562;                                                 
   4 STRAIN: K-12;                                                        
   5 GENE: AMPC, AMPA;                                                    
   6 EXPRESSION_SYSTEM: ESCHERICHIA COLI;                                 
   7 EXPRESSION_SYSTEM_TAXID: 562;                                        
   8 EXPRESSION_SYSTEM_STRAIN: JM109;                                     
   9 EXPRESSION_SYSTEM_VECTOR_TYPE: PLASMID;                              
  10 EXPRESSION_SYSTEM_PLASMID: POGO295                                   

>  <KEYWDS>
    AMPC, BETA-LACTAMASES, CEPHALOSPORINASE, SERINE HYDROLASE, COVALENT   
   2 INHIBITION, ANTIBIOTIC RESISTANCE, PERIPLASM, HYDROLASE              

>  <EXPDTA>
    X-RAY DIFFRACTION                                                     

>  <AUTHOR>
    D.TONDI                                                               

>  <REVDAT>
   4   25-OCT-17 3BM6    1       REMARK                                   
   3   02-JUN-10 3BM6    1       JRNL                                     
   2   26-MAY-10 3BM6    1       JRNL                                     
   1   17-FEB-09 3BM6    0                                                

>  <JRNL>
      AUTH   D.TONDI,S.CALO,B.K.SHOICHET,M.P.COSTI                        
      TITL   STRUCTURAL STUDY OF PHENYL BORONIC ACID DERIVATIVES AS AMPC  
      TITL 2 BETA-LACTAMASE INHIBITORS.                                   
      REF    BIOORG.MED.CHEM.LETT.         V.  20  3416 2010              
      REFN                   ISSN 0960-894X                               
      PMID   20452208                                                     
      DOI    10.1016/J.BMCL.2010.04.007                                   

>  <REMARK>
   2                                                                      
   2 RESOLUTION.    2.10 ANGSTROMS.                                       
   3                                                                      
   3 REFINEMENT.                                                          
   3   PROGRAM     : CNS 1.1                                              
   3   AUTHORS     : BRUNGER,ADAMS,CLORE,DELANO,GROS,GROSSE-              
   3               : KUNSTLEVE,JIANG,KUSZEWSKI,NILGES,PANNU,              
   3               : READ,RICE,SIMONSON,WARREN                            
   3                                                                      
   3  REFINEMENT TARGET : NULL                                            
   3                                                                      
   3  DATA USED IN REFINEMENT.                                            
   3   RESOLUTION RANGE HIGH (ANGSTROMS) : 2.10                           
   3   RESOLUTION RANGE LOW  (ANGSTROMS) : 20.00                          
   3   DATA CUTOFF            (SIGMA(F)) : 0.000                          
   3   DATA CUTOFF HIGH         (ABS(F)) : NULL                           
   3   DATA CUTOFF LOW          (ABS(F)) : NULL                           
   3   COMPLETENESS (WORKING+TEST)   (%) : 90.0                           
   3   NUMBER OF REFLECTIONS             : 41919                          
   3                                                                      
   3  FIT TO DATA USED IN REFINEMENT.                                     
   3   CROSS-VALIDATION METHOD          : THROUGHOUT                      
   3   FREE R VALUE TEST SET SELECTION  : RANDOM                          
   3   R VALUE            (WORKING SET) : 0.201                           
   3   FREE R VALUE                     : 0.258                           
   3   FREE R VALUE TEST SET SIZE   (%) : 4.500                           
   3   FREE R VALUE TEST SET COUNT      : 2091                            
   3   ESTIMATED ERROR OF FREE R VALUE  : NULL                            
   3                                                                      
   3  FIT IN THE HIGHEST RESOLUTION BIN.                                  
   3   TOTAL NUMBER OF BINS USED           : NULL                         
   3   BIN RESOLUTION RANGE HIGH       (A) : NULL                         
   3   BIN RESOLUTION RANGE LOW        (A) : NULL                         
   3   BIN COMPLETENESS (WORKING+TEST) (%) : NULL                         
   3   REFLECTIONS IN BIN    (WORKING SET) : NULL                         
   3   BIN R VALUE           (WORKING SET) : NULL                         
   3   BIN FREE R VALUE                    : NULL                         
   3   BIN FREE R VALUE TEST SET SIZE  (%) : NULL                         
   3   BIN FREE R VALUE TEST SET COUNT     : NULL                         
   3   ESTIMATED ERROR OF BIN FREE R VALUE : NULL                         
   3                                                                      
   3  NUMBER OF NON-HYDROGEN ATOMS USED IN REFINEMENT.                    
   3   PROTEIN ATOMS            : 5532                                    
   3   NUCLEIC ACID ATOMS       : 0                                       
   3   HETEROGEN ATOMS          : 60                                      
   3   SOLVENT ATOMS            : 329                                     
   3                                                                      
   3  B VALUES.                                                           
   3   FROM WILSON PLOT           (A**2) : NULL                           
   3   MEAN B VALUE      (OVERALL, A**2) : NULL                           
   3   OVERALL ANISOTROPIC B VALUE.                                       
   3    B11 (A**2) : NULL                                                 
   3    B22 (A**2) : NULL                                                 
   3    B33 (A**2) : NULL                                                 
   3    B12 (A**2) : NULL                                                 
   3    B13 (A**2) : NULL                                                 
   3    B23 (A**2) : NULL                                                 
   3                                                                      
   3  ESTIMATED COORDINATE ERROR.                                         
   3   ESD FROM LUZZATI PLOT        (A) : NULL                            
   3   ESD FROM SIGMAA              (A) : NULL                            
   3   LOW RESOLUTION CUTOFF        (A) : NULL                            
   3                                                                      
   3  CROSS-VALIDATED ESTIMATED COORDINATE ERROR.                         
   3   ESD FROM C-V LUZZATI PLOT    (A) : NULL                            
   3   ESD FROM C-V SIGMAA          (A) : NULL                            
   3                                                                      
   3  RMS DEVIATIONS FROM IDEAL VALUES.                                   
   3   BOND LENGTHS                 (A) : 0.006                           
   3   BOND ANGLES            (DEGREES) : NULL                            
   3   DIHEDRAL ANGLES        (DEGREES) : NULL                            
   3   IMPROPER ANGLES        (DEGREES) : NULL                            
   3                                                                      
   3  ISOTROPIC THERMAL MODEL : NULL                                      
   3                                                                      
   3  ISOTROPIC THERMAL FACTOR RESTRAINTS.    RMS    SIGMA                
   3   MAIN-CHAIN BOND              (A**2) : 1.301 ; 1.500                
   3   MAIN-CHAIN ANGLE             (A**2) : 1.988 ; 2.000                
   3   SIDE-CHAIN BOND              (A**2) : 2.186 ; 2.000                
   3   SIDE-CHAIN ANGLE             (A**2) : 3.015 ; 2.500                
   3                                                                      
   3  BULK SOLVENT MODELING.                                              
   3   METHOD USED : NULL                                                 
   3   KSOL        : NULL                                                 
   3   BSOL        : 47.82                                                
   3                                                                      
   3  NCS MODEL : NULL                                                    
   3                                                                      
   3  NCS RESTRAINTS.                         RMS   SIGMA/WEIGHT          
   3   GROUP  1  POSITIONAL            (A) : NULL  ; NULL                 
   3   GROUP  1  B-FACTOR           (A**2) : NULL  ; NULL                 
   3                                                                      
   3  PARAMETER FILE  1  : PROTEIN_REP.PARAM                              
   3  PARAMETER FILE  2  : DNA-RNA_REP.PARAM                              
   3  PARAMETER FILE  3  : WATER_REP.PARAM                                
   3  PARAMETER FILE  4  : ION.PARAM                                      
   3  PARAMETER FILE  5  : DE29_SEBMOD.PAR                                
   3  PARAMETER FILE  6  : NULL                                           
   3  TOPOLOGY FILE  1   : PROTEIN.TOP                                    
   3  TOPOLOGY FILE  2   : DNA-RNA.TOP                                    
   3  TOPOLOGY FILE  3   : WATER.TOP                                      
   3  TOPOLOGY FILE  4   : ION.TOP                                        
   3  TOPOLOGY FILE  5   : DE29_SEBMOD.TOP                                
   3  TOPOLOGY FILE  6   : NULL                                           
   3                                                                      
   3  OTHER REFINEMENT REMARKS: NULL                                      
   4                                                                      
   4 3BM6 COMPLIES WITH FORMAT V. 3.30, 13-JUL-11                         
 100                                                                      
 100 THIS ENTRY HAS BEEN PROCESSED BY RCSB ON 17-JAN-08.                  
 100 THE DEPOSITION ID IS D_1000045689.                                   
 200                                                                      
 200 EXPERIMENTAL DETAILS                                                 
 200  EXPERIMENT TYPE                : X-RAY DIFFRACTION                  
 200  DATE OF DATA COLLECTION        : 12-JAN-05                          
 200  TEMPERATURE           (KELVIN) : NULL                               
 200  PH                             : 8.7                                
 200  NUMBER OF CRYSTALS USED        : 1                                  
 200                                                                      
 200  SYNCHROTRON              (Y/N) : Y                                  
 200  RADIATION SOURCE               : ALS                                
 200  BEAMLINE                       : 8.3.1                              
 200  X-RAY GENERATOR MODEL          : NULL                               
 200  MONOCHROMATIC OR LAUE    (M/L) : M                                  
 200  WAVELENGTH OR RANGE        (A) : 1.1                                
 200  MONOCHROMATOR                  : NULL                               
 200  OPTICS                         : MIRRORS                            
 200                                                                      
 200  DETECTOR TYPE                  : CCD                                
 200  DETECTOR MANUFACTURER          : NULL                               
 200  INTENSITY-INTEGRATION SOFTWARE : DENZO                              
 200  DATA SCALING SOFTWARE          : SCALEPACK                          
 200                                                                      
 200  NUMBER OF UNIQUE REFLECTIONS   : 46573                              
 200  RESOLUTION RANGE HIGH      (A) : 2.100                              
 200  RESOLUTION RANGE LOW       (A) : 20.000                             
 200  REJECTION CRITERIA  (SIGMA(I)) : -3.000                             
 200                                                                      
 200 OVERALL.                                                             
 200  COMPLETENESS FOR RANGE     (%) : NULL                               
 200  DATA REDUNDANCY                : NULL                               
 200  R MERGE                    (I) : 0.05500                            
 200  R SYM                      (I) : NULL                               
 200  <I/SIGMA(I)> FOR THE DATA SET  : 15.0800                            
 200                                                                      
 200 IN THE HIGHEST RESOLUTION SHELL.                                     
 200  HIGHEST RESOLUTION SHELL, RANGE HIGH (A) : NULL                     
 200  HIGHEST RESOLUTION SHELL, RANGE LOW  (A) : NULL                     
 200  COMPLETENESS FOR SHELL     (%) : NULL                               
 200  DATA REDUNDANCY IN SHELL       : NULL                               
 200  R MERGE FOR SHELL          (I) : NULL                               
 200  R SYM FOR SHELL            (I) : NULL                               
 200  <I/SIGMA(I)> FOR SHELL         : NULL                               
 200                                                                      
 200 DIFFRACTION PROTOCOL: SINGLE WAVELENGTH                              
 200 METHOD USED TO DETERMINE THE STRUCTURE: NULL                         
 200 SOFTWARE USED: CNS                                                   
 200 STARTING MODEL: PDB ENTRY 1GA9                                       
 200                                                                      
 200 REMARK: NULL                                                         
 280                                                                      
 280 CRYSTAL                                                              
 280 SOLVENT CONTENT, VS   (%): 51.79                                     
 280 MATTHEWS COEFFICIENT, VM (ANGSTROMS**3/DA): 2.55                     
 280                                                                      
 280 CRYSTALLIZATION CONDITIONS: POTASSIUM PHOSPHATE BUFFER, PH 8.7,      
 280  VAPOR DIFFUSION, HANGING DROP, TEMPERATURE 295K                     
 290                                                                      
 290 CRYSTALLOGRAPHIC SYMMETRY                                            
 290 SYMMETRY OPERATORS FOR SPACE GROUP: C 1 2 1                          
 290                                                                      
 290      SYMOP   SYMMETRY                                                
 290     NNNMMM   OPERATOR                                                
 290       1555   X,Y,Z                                                   
 290       2555   -X,Y,-Z                                                 
 290       3555   X+1/2,Y+1/2,Z                                           
 290       4555   -X+1/2,Y+1/2,-Z                                         
 290                                                                      
 290     WHERE NNN -> OPERATOR NUMBER                                     
 290           MMM -> TRANSLATION VECTOR                                  
 290                                                                      
 290 CRYSTALLOGRAPHIC SYMMETRY TRANSFORMATIONS                            
 290 THE FOLLOWING TRANSFORMATIONS OPERATE ON THE ATOM/HETATM             
 290 RECORDS IN THIS ENTRY TO PRODUCE CRYSTALLOGRAPHICALLY                
 290 RELATED MOLECULES.                                                   
 290   SMTRY1   1  1.000000  0.000000  0.000000        0.00000            
 290   SMTRY2   1  0.000000  1.000000  0.000000        0.00000            
 290   SMTRY3   1  0.000000  0.000000  1.000000        0.00000            
 290   SMTRY1   2 -1.000000  0.000000  0.000000        0.00000            
 290   SMTRY2   2  0.000000  1.000000  0.000000        0.00000            
 290   SMTRY3   2  0.000000  0.000000 -1.000000        0.00000            
 290   SMTRY1   3  1.000000  0.000000  0.000000       59.45400            
 290   SMTRY2   3  0.000000  1.000000  0.000000       38.59000            
 290   SMTRY3   3  0.000000  0.000000  1.000000        0.00000            
 290   SMTRY1   4 -1.000000  0.000000  0.000000       59.45400            
 290   SMTRY2   4  0.000000  1.000000  0.000000       38.59000            
 290   SMTRY3   4  0.000000  0.000000 -1.000000        0.00000            
 290                                                                      
 290 REMARK: NULL                                                         
 300                                                                      
 300 BIOMOLECULE: 1                                                       
 300 SEE REMARK 350 FOR THE AUTHOR PROVIDED AND/OR PROGRAM                
 300 GENERATED ASSEMBLY INFORMATION FOR THE STRUCTURE IN                  
 300 THIS ENTRY. THE REMARK MAY ALSO PROVIDE INFORMATION ON               
 300 BURIED SURFACE AREA.                                                 
 350                                                                      
 350 COORDINATES FOR A COMPLETE MULTIMER REPRESENTING THE KNOWN           
 350 BIOLOGICALLY SIGNIFICANT OLIGOMERIZATION STATE OF THE                
 350 MOLECULE CAN BE GENERATED BY APPLYING BIOMT TRANSFORMATIONS          
 350 GIVEN BELOW.  BOTH NON-CRYSTALLOGRAPHIC AND                          
 350 CRYSTALLOGRAPHIC OPERATIONS ARE GIVEN.                               
 350                                                                      
 350 BIOMOLECULE: 1                                                       
 350 AUTHOR DETERMINED BIOLOGICAL UNIT: DIMERIC                           
 350 SOFTWARE DETERMINED QUATERNARY STRUCTURE: DIMERIC                    
 350 SOFTWARE USED: PISA                                                  
 350 TOTAL BURIED SURFACE AREA: 1320 ANGSTROM**2                          
 350 APPLY THE FOLLOWING TO CHAINS: A, B                                  
 350   BIOMT1   1  1.000000  0.000000  0.000000        0.00000            
 350   BIOMT2   1  0.000000  1.000000  0.000000        0.00000            
 350   BIOMT3   1  0.000000  0.000000  1.000000        0.00000            
 470                                                                      
 470 MISSING ATOM                                                         
 470 THE FOLLOWING RESIDUES HAVE MISSING ATOMS (M=MODEL NUMBER;           
 470 RES=RESIDUE NAME; C=CHAIN IDENTIFIER; SSEQ=SEQUENCE NUMBER;          
 470 I=INSERTION CODE):                                                   
 470   M RES CSSEQI  ATOMS                                                
 470     GLN A  22    CG   CD   OE1  NE2                                  
 470     LYS A  24    CG   CD   CE   NZ                                   
 470     GLN A  35    CG   CD   OE1  NE2                                  
 470     LYS A  37    CG   CD   CE   NZ                                   
 470     LYS A  51    CE   NZ                                             
 470     LYS A  99    CG   CD   CE   NZ                                   
 470     GLU A 124    CG   CD   OE1  OE2                                  
 470     GLU A 205    CG   CD   OE1  OE2                                  
 470     LYS A 239    CG   CD   CE   NZ                                   
 470     LYS A 246    CG   CD   CE   NZ                                   
 470     LYS A 290    CG   CD   CE   NZ                                   
 470     ARG A 309    CG   CD   NE   CZ   NH1  NH2                        
 470     GLN B   7    CG   CD   OE1  NE2                                  
 470     LYS B  50    CG   CD   CE   NZ                                   
 470     LYS B  51    CG   CD   CE   NZ                                   
 470     GLU B 205    CG   CD   OE1  OE2                                  
 470     LYS B 207    CG   CD   CE   NZ                                   
 500                                                                      
 500 GEOMETRY AND STEREOCHEMISTRY                                         
 500 SUBTOPIC: CLOSE CONTACTS IN SAME ASYMMETRIC UNIT                     
 500                                                                      
 500 THE FOLLOWING ATOMS ARE IN CLOSE CONTACT.                            
 500                                                                      
 500  ATM1  RES C  SSEQI   ATM2  RES C  SSEQI           DISTANCE          
 500   CZ2  TRP B   260     CG1  VAL B   298              1.35            
 500   NE1  TRP B   260     CB   VAL B   298              1.40            
 500   CE2  TRP B   260     CG1  VAL B   298              1.48            
 500   CE2  TRP B   260     CB   VAL B   298              1.73            
 500   NE1  TRP B   260     CA   VAL B   298              2.02            
 500   CH2  TRP B   260     CG1  VAL B   298              2.16            
 500                                                                      
 500 REMARK: NULL                                                         
 500                                                                      
 500 GEOMETRY AND STEREOCHEMISTRY                                         
 500 SUBTOPIC: TORSION ANGLES                                             
 500                                                                      
 500 TORSION ANGLES OUTSIDE THE EXPECTED RAMACHANDRAN REGIONS:            
 500 (M=MODEL NUMBER; RES=RESIDUE NAME; C=CHAIN IDENTIFIER;               
 500 SSEQ=SEQUENCE NUMBER; I=INSERTION CODE).                             
 500                                                                      
 500 STANDARD TABLE:                                                      
 500 FORMAT:(10X,I3,1X,A3,1X,A1,I4,A1,4X,F7.2,3X,F7.2)                    
 500                                                                      
 500 EXPECTED VALUES: GJ KLEYWEGT AND TA JONES (1996). PHI/PSI-           
 500 CHOLOGY: RAMACHANDRAN REVISITED. STRUCTURE 4, 1395 - 1400            
 500                                                                      
 500  M RES CSSEQI        PSI       PHI                                   
 500    LYS A  51       40.55     39.40                                   
 500    ASN A 102      -67.13    -22.55                                   
 500    LYS A 126      -59.94   -148.44                                   
 500    SER A 154      -70.87    -80.84                                   
 500    VAL A 178      -56.92   -126.84                                   
 500    TYR A 221       30.31   -158.96                                   
 500    ALA A 307      125.46    -30.13                                   
 500    ASN A 341       50.36    -96.57                                   
 500    LYS B  50       -1.27     77.93                                   
 500    LYS B  51       62.20     29.81                                   
 500    LYS B 126      -64.95   -126.27                                   
 500    VAL B 178      -65.05   -124.63                                   
 500    TYR B 221       24.85   -161.49                                   
 500    ALA B 307      120.80    -34.30                                   
 500    ASN B 341       49.19    -94.22                                   
 500                                                                      
 500 REMARK: NULL                                                         
 615                                                                      
 615 ZERO OCCUPANCY ATOM                                                  
 615 THE FOLLOWING RESIDUES HAVE ATOMS MODELED WITH ZERO                  
 615 OCCUPANCY. THE LOCATION AND PROPERTIES OF THESE ATOMS                
 615 MAY NOT BE RELIABLE. (M=MODEL NUMBER; RES=RESIDUE NAME;              
 615 C=CHAIN IDENTIFIER; SSEQ=SEQUENCE NUMBER; I=INSERTION CODE):         
 615   M RES C  SSEQI                                                     
 615     C9P B     2                                                      
 800                                                                      
 800 SITE                                                                 
 800 SITE_IDENTIFIER: AC1                                                 
 800 EVIDENCE_CODE: SOFTWARE                                              
 800 SITE_DESCRIPTION: BINDING SITE FOR RESIDUE C9P A 1                   
 800                                                                      
 800 SITE_IDENTIFIER: AC2                                                 
 800 EVIDENCE_CODE: SOFTWARE                                              
 800 SITE_DESCRIPTION: BINDING SITE FOR RESIDUE C9P B 2                   
 900                                                                      
 900 RELATED ENTRIES                                                      
 900 RELATED ID: 1GA9   RELATED DB: PDB                                   
 900 RELATED ID: 1C3B   RELATED DB: PDB                                   
 900 RELATED ID: 2I72   RELATED DB: PDB                                   

>  <DBREF>
 3BM6 A    4   361  UNP    P00811   AMPC_ECOLI      20    377             
 3BM6 B    4   361  UNP    P00811   AMPC_ECOLI      20    377             

>  <SEQRES>
   1 A  358  ALA PRO GLN GLN ILE ASN ASP ILE VAL HIS ARG THR ILE          
   2 A  358  THR PRO LEU ILE GLU GLN GLN LYS ILE PRO GLY MET ALA          
   3 A  358  VAL ALA VAL ILE TYR GLN GLY LYS PRO TYR TYR PHE THR          
   4 A  358  TRP GLY TYR ALA ASP ILE ALA LYS LYS GLN PRO VAL THR          
   5 A  358  GLN GLN THR LEU PHE GLU LEU GLY SER VAL SER LYS THR          
   6 A  358  PHE THR GLY VAL LEU GLY GLY ASP ALA ILE ALA ARG GLY          
   7 A  358  GLU ILE LYS LEU SER ASP PRO THR THR LYS TYR TRP PRO          
   8 A  358  GLU LEU THR ALA LYS GLN TRP ASN GLY ILE THR LEU LEU          
   9 A  358  HIS LEU ALA THR TYR THR ALA GLY GLY LEU PRO LEU GLN          
  10 A  358  VAL PRO ASP GLU VAL LYS SER SER SER ASP LEU LEU ARG          
  11 A  358  PHE TYR GLN ASN TRP GLN PRO ALA TRP ALA PRO GLY THR          
  12 A  358  GLN ARG LEU TYR ALA ASN SER SER ILE GLY LEU PHE GLY          
  13 A  358  ALA LEU ALA VAL LYS PRO SER GLY LEU SER PHE GLU GLN          
  14 A  358  ALA MET GLN THR ARG VAL PHE GLN PRO LEU LYS LEU ASN          
  15 A  358  HIS THR TRP ILE ASN VAL PRO PRO ALA GLU GLU LYS ASN          
  16 A  358  TYR ALA TRP GLY TYR ARG GLU GLY LYS ALA VAL HIS VAL          
  17 A  358  SER PRO GLY ALA LEU ASP ALA GLU ALA TYR GLY VAL LYS          
  18 A  358  SER THR ILE GLU ASP MET ALA ARG TRP VAL GLN SER ASN          
  19 A  358  LEU LYS PRO LEU ASP ILE ASN GLU LYS THR LEU GLN GLN          
  20 A  358  GLY ILE GLN LEU ALA GLN SER ARG TYR TRP GLN THR GLY          
  21 A  358  ASP MET TYR GLN GLY LEU GLY TRP GLU MET LEU ASP TRP          
  22 A  358  PRO VAL ASN PRO ASP SER ILE ILE ASN GLY SER ASP ASN          
  23 A  358  LYS ILE ALA LEU ALA ALA ARG PRO VAL LYS ALA ILE THR          
  24 A  358  PRO PRO THR PRO ALA VAL ARG ALA SER TRP VAL HIS LYS          
  25 A  358  THR GLY ALA THR GLY GLY PHE GLY SER TYR VAL ALA PHE          
  26 A  358  ILE PRO GLU LYS GLU LEU GLY ILE VAL MET LEU ALA ASN          
  27 A  358  LYS ASN TYR PRO ASN PRO ALA ARG VAL ASP ALA ALA TRP          
  28 A  358  GLN ILE LEU ASN ALA LEU GLN                                  
   1 B  358  ALA PRO GLN GLN ILE ASN ASP ILE VAL HIS ARG THR ILE          
   2 B  358  THR PRO LEU ILE GLU GLN GLN LYS ILE PRO GLY MET ALA          
   3 B  358  VAL ALA VAL ILE TYR GLN GLY LYS PRO TYR TYR PHE THR          
   4 B  358  TRP GLY TYR ALA ASP ILE ALA LYS LYS GLN PRO VAL THR          
   5 B  358  GLN GLN THR LEU PHE GLU LEU GLY SER VAL SER LYS THR          
   6 B  358  PHE THR GLY VAL LEU GLY GLY ASP ALA ILE ALA ARG GLY          
   7 B  358  GLU ILE LYS LEU SER ASP PRO THR THR LYS TYR TRP PRO          
   8 B  358  GLU LEU THR ALA LYS GLN TRP ASN GLY ILE THR LEU LEU          
   9 B  358  HIS LEU ALA THR TYR THR ALA GLY GLY LEU PRO LEU GLN          
  10 B  358  VAL PRO ASP GLU VAL LYS SER SER SER ASP LEU LEU ARG          
  11 B  358  PHE TYR GLN ASN TRP GLN PRO ALA TRP ALA PRO GLY THR          
  12 B  358  GLN ARG LEU TYR ALA ASN SER SER ILE GLY LEU PHE GLY          
  13 B  358  ALA LEU ALA VAL LYS PRO SER GLY LEU SER PHE GLU GLN          
  14 B  358  ALA MET GLN THR ARG VAL PHE GLN PRO LEU LYS LEU ASN          
  15 B  358  HIS THR TRP ILE ASN VAL PRO PRO ALA GLU GLU LYS ASN          
  16 B  358  TYR ALA TRP GLY TYR ARG GLU GLY LYS ALA VAL HIS VAL          
  17 B  358  SER PRO GLY ALA LEU ASP ALA GLU ALA TYR GLY VAL LYS          
  18 B  358  SER THR ILE GLU ASP MET ALA ARG TRP VAL GLN SER ASN          
  19 B  358  LEU LYS PRO LEU ASP ILE ASN GLU LYS THR LEU GLN GLN          
  20 B  358  GLY ILE GLN LEU ALA GLN SER ARG TYR TRP GLN THR GLY          
  21 B  358  ASP MET TYR GLN GLY LEU GLY TRP GLU MET LEU ASP TRP          
  22 B  358  PRO VAL ASN PRO ASP SER ILE ILE ASN GLY SER ASP ASN          
  23 B  358  LYS ILE ALA LEU ALA ALA ARG PRO VAL LYS ALA ILE THR          
  24 B  358  PRO PRO THR PRO ALA VAL ARG ALA SER TRP VAL HIS LYS          
  25 B  358  THR GLY ALA THR GLY GLY PHE GLY SER TYR VAL ALA PHE          
  26 B  358  ILE PRO GLU LYS GLU LEU GLY ILE VAL MET LEU ALA ASN          
  27 B  358  LYS ASN TYR PRO ASN PRO ALA ARG VAL ASP ALA ALA TRP          
  28 B  358  GLN ILE LEU ASN ALA LEU GLN                                  

>  <HET>
 C9P  A   1      30                                                       
 C9P  B   2      30                                                       

>  <HETNAM>
     C9P 4-(DIHYDROXYBORANYL)-2-({[4-(PHENYLSULFONYL)THIOPHEN-2-          
   2 C9P  YL]SULFONYL}AMINO)BENZOIC ACID                                  

>  <HETSYN>
     C9P 3-(4-BENZENESULFONYL-THIOPHENE-2-SULFONYLAMINO)-4-               
   2 C9P  CARBOXY-PHENYLBORONIC ACID                                      

>  <FORMUL>
   3  C9P    2(C17 H14 B N O8 S3)                                         
   5  HOH   *329(H2 O)                                                    

>  <HELIX>
   1   1 PRO A    5  LYS A   24  1                                  20    
   2   2 VAL A   65  ARG A   80  1                                  16    
   3   3 PRO A   88  TYR A   92  5                                   5    
   4   4 ALA A   98  ASN A  102  5                                   5    
   5   5 THR A  105  THR A  111  1                                   7    
   6   6 SER A  127  TRP A  138  1                                  12    
   7   7 ALA A  151  VAL A  163  1                                  13    
   8   8 SER A  169  VAL A  178  1                                  10    
   9   9 PRO A  192  TYR A  199  5                                   8    
  10  10 LEU A  216  TYR A  221  1                                   6    
  11  11 THR A  226  LYS A  239  1                                  14    
  12  12 PRO A  240  ILE A  243  5                                   4    
  13  13 GLU A  245  GLN A  256  1                                  12    
  14  14 ASN A  279  SER A  287  1                                   9    
  15  15 ASP A  288  LEU A  293  1                                   6    
  16  16 PRO A  330  GLU A  333  5                                   4    
  17  17 PRO A  345  LEU A  360  1                                  16    
  18  18 PRO B    5  LYS B   24  1                                  20    
  19  19 ILE B   48  LYS B   51  5                                   4    
  20  20 VAL B   65  ARG B   80  1                                  16    
  21  21 PRO B   88  TYR B   92  5                                   5    
  22  22 ALA B   98  ASN B  102  5                                   5    
  23  23 THR B  105  THR B  111  1                                   7    
  24  24 SER B  127  ASN B  137  1                                  11    
  25  25 ALA B  151  VAL B  163  1                                  13    
  26  26 LYS B  164  GLY B  167  5                                   4    
  27  27 SER B  169  VAL B  178  1                                  10    
  28  28 PHE B  179  LYS B  183  5                                   5    
  29  29 PRO B  192  TYR B  199  5                                   8    
  30  30 LEU B  216  TYR B  221  1                                   6    
  31  31 THR B  226  LYS B  239  1                                  14    
  32  32 PRO B  240  ILE B  243  5                                   4    
  33  33 GLU B  245  GLN B  256  1                                  12    
  34  34 ASN B  279  SER B  287  1                                   9    
  35  35 ASP B  288  LEU B  293  1                                   6    
  36  36 PRO B  330  GLU B  333  5                                   4    
  37  37 PRO B  345  GLN B  361  1                                  17    

>  <SHEET>
   1   A10 GLN A  52  PRO A  53  0                                        
   2   A10 LYS A  37  ASP A  47 -1  N  ALA A  46   O  GLN A  52           
   3   A10 GLY A  27  TYR A  34 -1  N  TYR A  34   O  LYS A  37           
   4   A10 LEU A 334  ALA A 340 -1  O  GLY A 335   N  ILE A  33           
   5   A10 GLY A 323  ILE A 329 -1  N  ILE A 329   O  LEU A 334           
   6   A10 SER A 311  ALA A 318 -1  N  GLY A 317   O  SER A 324           
   7   A10 GLU A 272  ASP A 275 -1  N  LEU A 274   O  TRP A 312           
   8   A10 MET A 265  GLN A 267 -1  N  TYR A 266   O  MET A 273           
   9   A10 ARG A 258  THR A 262 -1  N  TYR A 259   O  GLN A 267           
  10   A10 LYS A 299  THR A 305 -1  O  LYS A 299   N  GLN A 261           
   1   B 2 PHE A  60  GLU A  61  0                                        
   2   B 2 LYS A 224  SER A 225 -1  O  SER A 225   N  PHE A  60           
   1   C 2 GLN A 147  ARG A 148  0                                        
   2   C 2 ARG A 296  PRO A 297 -1  O  ARG A 296   N  ARG A 148           
   1   D 2 GLY A 202  ARG A 204  0                                        
   2   D 2 LYS A 207  VAL A 209 -1  O  VAL A 209   N  GLY A 202           
   1   E10 GLN B  52  PRO B  53  0                                        
   2   E10 LYS B  37  ASP B  47 -1  N  ALA B  46   O  GLN B  52           
   3   E10 GLY B  27  TYR B  34 -1  N  TYR B  34   O  LYS B  37           
   4   E10 LEU B 334  ALA B 340 -1  O  LEU B 339   N  ALA B  29           
   5   E10 GLY B 323  ILE B 329 -1  N  ILE B 329   O  LEU B 334           
   6   E10 SER B 311  ALA B 318 -1  N  GLY B 317   O  SER B 324           
   7   E10 GLU B 272  ASP B 275 -1  N  LEU B 274   O  TRP B 312           
   8   E10 MET B 265  GLN B 267 -1  N  TYR B 266   O  MET B 273           
   9   E10 ARG B 258  THR B 262 -1  N  TRP B 260   O  GLN B 267           
  10   E10 LYS B 299  THR B 305 -1  O  LYS B 299   N  GLN B 261           
   1   F 2 PHE B  60  GLU B  61  0                                        
   2   F 2 LYS B 224  SER B 225 -1  O  SER B 225   N  PHE B  60           
   1   G 2 GLN B 147  ARG B 148  0                                        
   2   G 2 ARG B 296  PRO B 297 -1  O  ARG B 296   N  ARG B 148           
   1   H 2 GLY B 202  ARG B 204  0                                        
   2   H 2 LYS B 207  VAL B 209 -1  O  VAL B 209   N  GLY B 202           

>  <LINK>
       OG  SER A  64                 B   C9P A   1     1555   1555  1.45  
       OG  SER B  64                 B   C9P B   2     1555   1555  1.46  

>  <CISPEP>
   1 TRP A  276    PRO A  277          0         0.07                     
   2 THR A  302    PRO A  303          0        -0.23                     
   3 TRP B  276    PRO B  277          0         0.18                     
   4 THR B  302    PRO B  303          0         0.05                     

>  <SITE>
   1 AC1 12 SER A  64  GLN A 120  TYR A 150  ASN A 152                    
   2 AC1 12 TYR A 221  LEU A 293  GLY A 317  ALA A 318                    
   3 AC1 12 THR A 319  ASN A 343  HOH A 509  ALA B   4                    
   1 AC2 12 SER B  64  TYR B 150  ASN B 152  TYR B 221                    
   2 AC2 12 LEU B 293  GLY B 317  ALA B 318  THR B 319                    
   3 AC2 12 ASN B 343  HOH B 368  HOH B 373  HOH B 475                    

>  <ORIGX1>
      1.000000  0.000000  0.000000        0.00000                         

>  <ORIGX2>
      0.000000  1.000000  0.000000        0.00000                         

>  <ORIGX3>
      0.000000  0.000000  1.000000        0.00000                         

>  <SCALE1>
      0.008410  0.000000  0.004098        0.00000                         

>  <SCALE2>
      0.000000  0.012957  0.000000        0.00000                         

>  <SCALE3>
      0.000000  0.000000  0.011358        0.00000                         

>  <MASTER>
      313    0    2   37   32    0    6    6 5921    2   62   56          

$$$$
