start_structures/Ligand_Substrate/Ligand_Complex_Stripped/CB4_5GLB.pdb
 OpenBabel08222315203D

 28 28  0  0  1  0  0  0  0  0999 V2000
   15.7710   11.5560   10.2820 N   0  0  0  0  0  0  0  0  0  0  0  0
   14.5030   11.8880   10.9240 C   0  0  2  0  0  0  0  0  0  0  0  0
   14.2950   11.3230   12.3670 C   0  0  0  0  0  0  0  0  0  0  0  0
   13.3210   11.6200   12.9800 O   0  0  0  0  0  0  0  0  0  0  0  0
   13.3200   11.4920   10.0200 C   0  0  0  0  0  0  0  0  0  0  0  0
   13.2310   12.3220    8.9110 O   0  0  0  0  0  0  0  0  0  0  0  0
   13.5410   11.5570    7.4880 B   0  0  0  0  0  0  0  0  0  0  0  0
   14.8810   11.0890    7.6260 O   0  0  0  0  0  0  0  0  0  0  0  0
   12.4820   10.5550    7.4590 O   0  0  0  0  0  0  0  0  0  0  0  0
   13.3250   12.7420    6.3600 C   0  0  0  0  0  0  0  0  0  0  0  0
   12.4610   11.9890    5.5710 N   0  0  0  0  0  0  0  0  0  0  0  0
   12.0400   12.4430    4.3350 C   0  0  0  0  0  0  0  0  0  0  0  0
   12.4100   13.5290    3.9150 O   0  0  0  0  0  0  0  0  0  0  0  0
   11.1560   11.4560    3.6960 C   0  0  0  0  0  0  0  0  0  0  0  0
   10.7070   10.4480    4.3900 N   0  0  0  0  0  0  0  0  0  0  0  0
   10.9340    9.2420    3.9540 O   0  0  0  0  0  0  0  0  0  0  0  0
   10.0970    8.1780    4.2450 C   0  0  0  0  0  0  0  0  0  0  0  0
   10.7170   11.6330    2.3170 C   0  0  0  0  0  0  0  0  0  0  0  0
   11.1800   12.6760    1.5070 C   0  0  0  0  0  0  0  0  0  0  0  0
   10.3260   12.4190    0.0740 S   0  0  0  0  0  0  0  0  0  0  0  0
    9.4600   11.0350    0.5080 C   0  0  0  0  0  0  0  0  0  0  0  0
    8.5310   10.2850   -0.2730 N   0  0  0  0  0  0  0  0  0  0  0  0
    9.8020   10.7700    1.7740 N   0  0  0  0  0  0  0  0  0  0  0  0
    9.1450    7.9560    3.1160 C   0  0  0  0  0  0  0  0  0  0  0  0
   10.9240    6.9460    4.4060 C   0  0  0  0  0  0  0  0  0  0  0  0
    9.3100    8.4050    5.4990 C   0  0  0  0  0  0  0  0  0  0  0  0
    8.3170    9.1800    5.4870 O   0  0  0  0  0  0  0  0  0  0  0  0
    9.6280    7.8170    6.5720 O   0  0  0  0  0  0  0  0  0  0  0  0
  2  1  1  6  0  0  0
  2  3  1  0  0  0  0
  3  4  2  0  0  0  0
  5  2  1  0  0  0  0
  6  5  1  0  0  0  0
  7  8  1  0  0  0  0
  7  9  1  0  0  0  0
  7 10  1  0  0  0  0
  7  6  1  0  0  0  0
 10 11  1  0  0  0  0
 11 12  1  0  0  0  0
 12 13  2  0  0  0  0
 12 14  1  0  0  0  0
 14 15  2  0  0  0  0
 14 18  1  0  0  0  0
 15 16  1  0  0  0  0
 16 17  1  0  0  0  0
 17 24  1  0  0  0  0
 17 25  1  0  0  0  0
 17 26  1  0  0  0  0
 18 19  2  0  0  0  0
 18 23  1  0  0  0  0
 19 20  1  0  0  0  0
 20 21  1  0  0  0  0
 21 22  1  0  0  0  0
 21 23  2  0  0  0  0
 26 27  2  0  0  0  0
 26 28  1  0  0  0  0
M  END
>  <HEADER>
    HYDROLASE                               10-JUL-16   5GLB              

>  <TITLE>
    CRYSTAL STRUCTURE OF THE CLASS A BETA-LACTAMASE PENL-TTR10 IN COMPLEX 
   2 WITH CBA                                                             

>  <COMPND>
    MOL_ID: 1;                                                            
   2 MOLECULE: BETA-LACTAMASE;                                            
   3 CHAIN: A;                                                            
   4 FRAGMENT: UNP RESIDUES 31-294;                                       
   5 EC: 3.5.2.6;                                                         
   6 ENGINEERED: YES                                                      

>  <SOURCE>
    MOL_ID: 1;                                                            
   2 ORGANISM_SCIENTIFIC: BURKHOLDERIA THAILANDENSIS;                     
   3 ORGANISM_TAXID: 57975;                                               
   4 GENE: A8H35_31635;                                                   
   5 EXPRESSION_SYSTEM: ESCHERICHIA COLI BL21(DE3);                       
   6 EXPRESSION_SYSTEM_TAXID: 469008;                                     
   7 EXPRESSION_SYSTEM_STRAIN: BL21(DE3);                                 
   8 EXPRESSION_SYSTEM_VECTOR_TYPE: PLASMID;                              
   9 EXPRESSION_SYSTEM_PLASMID: PET28A(+)                                 

>  <KEYWDS>
    PENL-TTR10, OMEGA LOOP, HYDROLASE                                     

>  <EXPDTA>
    X-RAY DIFFRACTION                                                     

>  <AUTHOR>
    J.M.CHOI,H.YI,H.S.KIM,S.H.LEE                                         

>  <REVDAT>
   2   19-FEB-20 5GLB    1       SOURCE REMARK DBREF  SEQADV              
   2 2                   1       LINK                                     
   1   15-FEB-17 5GLB    0                                                

>  <JRNL>
      AUTH   H.YI,J.M.CHOI,J.HWANG,F.PRATI,T.P.CAO,S.H.LEE,H.S.KIM        
      TITL   HIGH ADAPTABILITY OF THE OMEGA LOOP UNDERLIES THE            
      TITL 2 SUBSTRATE-SPECTRUM-EXTENSION EVOLUTION OF A CLASS A          
      TITL 3 BETA-LACTAMASE, PENL                                         
      REF    SCI REP                       V.   6 36527 2016              
      REFN                   ESSN 2045-2322                               
      PMID   27827433                                                     
      DOI    10.1038/SREP36527                                            

>  <REMARK>
   2                                                                      
   2 RESOLUTION.    1.60 ANGSTROMS.                                       
   3                                                                      
   3 REFINEMENT.                                                          
   3   PROGRAM     : PHENIX 1.8_1069                                      
   3   AUTHORS     : PAUL ADAMS,PAVEL AFONINE,VINCENT CHEN,IAN            
   3               : DAVIS,KRESHNA GOPAL,RALF GROSSE-KUNSTLEVE,           
   3               : LI-WEI HUNG,ROBERT IMMORMINO,TOM IOERGER,            
   3               : AIRLIE MCCOY,ERIK MCKEE,NIGEL MORIARTY,              
   3               : REETAL PAI,RANDY READ,JANE RICHARDSON,               
   3               : DAVID RICHARDSON,TOD ROMO,JIM SACCHETTINI,           
   3               : NICHOLAS SAUTER,JACOB SMITH,LAURENT                  
   3               : STORONI,TOM TERWILLIGER,PETER ZWART                  
   3                                                                      
   3    REFINEMENT TARGET : NULL                                          
   3                                                                      
   3  DATA USED IN REFINEMENT.                                            
   3   RESOLUTION RANGE HIGH (ANGSTROMS) : 1.60                           
   3   RESOLUTION RANGE LOW  (ANGSTROMS) : 32.78                          
   3   MIN(FOBS/SIGMA_FOBS)              : 1.370                          
   3   COMPLETENESS FOR RANGE        (%) : 100.0                          
   3   NUMBER OF REFLECTIONS             : 30932                          
   3                                                                      
   3  FIT TO DATA USED IN REFINEMENT.                                     
   3   R VALUE     (WORKING + TEST SET) : 0.163                           
   3   R VALUE            (WORKING SET) : 0.162                           
   3   FREE R VALUE                     : 0.200                           
   3   FREE R VALUE TEST SET SIZE   (%) : 5.050                           
   3   FREE R VALUE TEST SET COUNT      : 1561                            
   3                                                                      
   3  FIT TO DATA USED IN REFINEMENT (IN BINS).                           
   3   BIN  RESOLUTION RANGE  COMPL.    NWORK NFREE   RWORK  RFREE        
   3     1 32.7828 -  3.5565    1.00     2849   152  0.1621 0.1828        
   3     2  3.5565 -  2.8234    1.00     2742   139  0.1703 0.2132        
   3     3  2.8234 -  2.4666    1.00     2669   159  0.1690 0.2011        
   3     4  2.4666 -  2.2412    1.00     2651   154  0.1573 0.1840        
   3     5  2.2412 -  2.0805    1.00     2707   104  0.1493 0.1918        
   3     6  2.0805 -  1.9579    1.00     2615   152  0.1527 0.1875        
   3     7  1.9579 -  1.8599    1.00     2651   150  0.1498 0.2079        
   3     8  1.8599 -  1.7789    1.00     2643   127  0.1625 0.2119        
   3     9  1.7789 -  1.7104    1.00     2601   163  0.1697 0.2465        
   3    10  1.7104 -  1.6514    1.00     2648   127  0.1643 0.2174        
   3    11  1.6514 -  1.5998    1.00     2595   134  0.1613 0.2235        
   3                                                                      
   3  BULK SOLVENT MODELLING.                                             
   3   METHOD USED        : NULL                                          
   3   SOLVENT RADIUS     : 1.11                                          
   3   SHRINKAGE RADIUS   : 0.90                                          
   3   K_SOL              : NULL                                          
   3   B_SOL              : NULL                                          
   3                                                                      
   3  ERROR ESTIMATES.                                                    
   3   COORDINATE ERROR (MAXIMUM-LIKELIHOOD BASED)     : 0.140            
   3   PHASE ERROR (DEGREES, MAXIMUM-LIKELIHOOD BASED) : 18.080           
   3                                                                      
   3  B VALUES.                                                           
   3   FROM WILSON PLOT           (A**2) : NULL                           
   3   MEAN B VALUE      (OVERALL, A**2) : NULL                           
   3   OVERALL ANISOTROPIC B VALUE.                                       
   3    B11 (A**2) : NULL                                                 
   3    B22 (A**2) : NULL                                                 
   3    B33 (A**2) : NULL                                                 
   3    B12 (A**2) : NULL                                                 
   3    B13 (A**2) : NULL                                                 
   3    B23 (A**2) : NULL                                                 
   3                                                                      
   3  TWINNING INFORMATION.                                               
   3   FRACTION: NULL                                                     
   3   OPERATOR: NULL                                                     
   3                                                                      
   3  DEVIATIONS FROM IDEAL VALUES.                                       
   3                 RMSD          COUNT                                  
   3   BOND      :  0.007           2064                                  
   3   ANGLE     :  1.213           2799                                  
   3   CHIRALITY :  0.071            319                                  
   3   PLANARITY :  0.004            369                                  
   3   DIHEDRAL  : 15.506            766                                  
   3                                                                      
   3  TLS DETAILS                                                         
   3   NUMBER OF TLS GROUPS  : NULL                                       
   3                                                                      
   3  NCS DETAILS                                                         
   3   NUMBER OF NCS GROUPS : NULL                                        
   3                                                                      
   3  OTHER REFINEMENT REMARKS: NULL                                      
   4                                                                      
   4 5GLB COMPLIES WITH FORMAT V. 3.30, 13-JUL-11                         
 100                                                                      
 100 THIS ENTRY HAS BEEN PROCESSED BY PDBJ ON 12-JUL-16.                  
 100 THE DEPOSITION ID IS D_1300001020.                                   
 200                                                                      
 200 EXPERIMENTAL DETAILS                                                 
 200  EXPERIMENT TYPE                : X-RAY DIFFRACTION                  
 200  DATE OF DATA COLLECTION        : 17-DEC-12                          
 200  TEMPERATURE           (KELVIN) : 100                                
 200  PH                             : NULL                               
 200  NUMBER OF CRYSTALS USED        : 1                                  
 200                                                                      
 200  SYNCHROTRON              (Y/N) : Y                                  
 200  RADIATION SOURCE               : PAL/PLS                            
 200  BEAMLINE                       : 5C (4A)                            
 200  X-RAY GENERATOR MODEL          : NULL                               
 200  MONOCHROMATIC OR LAUE    (M/L) : M                                  
 200  WAVELENGTH OR RANGE        (A) : 0.979                              
 200  MONOCHROMATOR                  : DCM SI(111) CRYSTAL                
 200  OPTICS                         : NULL                               
 200                                                                      
 200  DETECTOR TYPE                  : CCD                                
 200  DETECTOR MANUFACTURER          : ADSC QUANTUM 315R                  
 200  INTENSITY-INTEGRATION SOFTWARE : HKL-2000                           
 200  DATA SCALING SOFTWARE          : HKL-2000                           
 200                                                                      
 200  NUMBER OF UNIQUE REFLECTIONS   : 30982                              
 200  RESOLUTION RANGE HIGH      (A) : 1.600                              
 200  RESOLUTION RANGE LOW       (A) : 50.000                             
 200  REJECTION CRITERIA  (SIGMA(I)) : -3.000                             
 200                                                                      
 200 OVERALL.                                                             
 200  COMPLETENESS FOR RANGE     (%) : 100.0                              
 200  DATA REDUNDANCY                : 9.300                              
 200  R MERGE                    (I) : 0.07200                            
 200  R SYM                      (I) : NULL                               
 200  <I/SIGMA(I)> FOR THE DATA SET  : 12.8000                            
 200                                                                      
 200 IN THE HIGHEST RESOLUTION SHELL.                                     
 200  HIGHEST RESOLUTION SHELL, RANGE HIGH (A) : 1.60                     
 200  HIGHEST RESOLUTION SHELL, RANGE LOW  (A) : 1.63                     
 200  COMPLETENESS FOR SHELL     (%) : 100.0                              
 200  DATA REDUNDANCY IN SHELL       : 9.40                               
 200  R MERGE FOR SHELL          (I) : 0.31500                            
 200  R SYM FOR SHELL            (I) : NULL                               
 200  <I/SIGMA(I)> FOR SHELL         : 9.714                              
 200                                                                      
 200 DIFFRACTION PROTOCOL: SINGLE WAVELENGTH                              
 200 METHOD USED TO DETERMINE THE STRUCTURE: MOLECULAR REPLACEMENT        
 200 SOFTWARE USED: MOLREP                                                
 200 STARTING MODEL: 5GL9                                                 
 200                                                                      
 200 REMARK: NULL                                                         
 280                                                                      
 280 CRYSTAL                                                              
 280 SOLVENT CONTENT, VS   (%): 36.70                                     
 280 MATTHEWS COEFFICIENT, VM (ANGSTROMS**3/DA): 1.94                     
 280                                                                      
 280 CRYSTALLIZATION CONDITIONS: 30% PEGMME 2000, 0.1M K-THIOCYANATE,     
 280  15% GLYCEROL, VAPOR DIFFUSION, HANGING DROP, TEMPERATURE 277K       
 290                                                                      
 290 CRYSTALLOGRAPHIC SYMMETRY                                            
 290 SYMMETRY OPERATORS FOR SPACE GROUP: P 21 21 2                        
 290                                                                      
 290      SYMOP   SYMMETRY                                                
 290     NNNMMM   OPERATOR                                                
 290       1555   X,Y,Z                                                   
 290       2555   -X,-Y,Z                                                 
 290       3555   -X+1/2,Y+1/2,-Z                                         
 290       4555   X+1/2,-Y+1/2,-Z                                         
 290                                                                      
 290     WHERE NNN -> OPERATOR NUMBER                                     
 290           MMM -> TRANSLATION VECTOR                                  
 290                                                                      
 290 CRYSTALLOGRAPHIC SYMMETRY TRANSFORMATIONS                            
 290 THE FOLLOWING TRANSFORMATIONS OPERATE ON THE ATOM/HETATM             
 290 RECORDS IN THIS ENTRY TO PRODUCE CRYSTALLOGRAPHICALLY                
 290 RELATED MOLECULES.                                                   
 290   SMTRY1   1  1.000000  0.000000  0.000000        0.00000            
 290   SMTRY2   1  0.000000  1.000000  0.000000        0.00000            
 290   SMTRY3   1  0.000000  0.000000  1.000000        0.00000            
 290   SMTRY1   2 -1.000000  0.000000  0.000000        0.00000            
 290   SMTRY2   2  0.000000 -1.000000  0.000000        0.00000            
 290   SMTRY3   2  0.000000  0.000000  1.000000        0.00000            
 290   SMTRY1   3 -1.000000  0.000000  0.000000       35.02950            
 290   SMTRY2   3  0.000000  1.000000  0.000000       46.44050            
 290   SMTRY3   3  0.000000  0.000000 -1.000000        0.00000            
 290   SMTRY1   4  1.000000  0.000000  0.000000       35.02950            
 290   SMTRY2   4  0.000000 -1.000000  0.000000       46.44050            
 290   SMTRY3   4  0.000000  0.000000 -1.000000        0.00000            
 290                                                                      
 290 REMARK: NULL                                                         
 300                                                                      
 300 BIOMOLECULE: 1                                                       
 300 SEE REMARK 350 FOR THE AUTHOR PROVIDED AND/OR PROGRAM                
 300 GENERATED ASSEMBLY INFORMATION FOR THE STRUCTURE IN                  
 300 THIS ENTRY. THE REMARK MAY ALSO PROVIDE INFORMATION ON               
 300 BURIED SURFACE AREA.                                                 
 350                                                                      
 350 COORDINATES FOR A COMPLETE MULTIMER REPRESENTING THE KNOWN           
 350 BIOLOGICALLY SIGNIFICANT OLIGOMERIZATION STATE OF THE                
 350 MOLECULE CAN BE GENERATED BY APPLYING BIOMT TRANSFORMATIONS          
 350 GIVEN BELOW.  BOTH NON-CRYSTALLOGRAPHIC AND                          
 350 CRYSTALLOGRAPHIC OPERATIONS ARE GIVEN.                               
 350                                                                      
 350 BIOMOLECULE: 1                                                       
 350 AUTHOR DETERMINED BIOLOGICAL UNIT: MONOMERIC                         
 350 APPLY THE FOLLOWING TO CHAINS: A                                     
 350   BIOMT1   1  1.000000  0.000000  0.000000        0.00000            
 350   BIOMT2   1  0.000000  1.000000  0.000000        0.00000            
 350   BIOMT3   1  0.000000  0.000000  1.000000        0.00000            
 465                                                                      
 465 MISSING RESIDUES                                                     
 465 THE FOLLOWING RESIDUES WERE NOT LOCATED IN THE                       
 465 EXPERIMENT. (M=MODEL NUMBER; RES=RESIDUE NAME; C=CHAIN               
 465 IDENTIFIER; SSSEQ=SEQUENCE NUMBER; I=INSERTION CODE.)                
 465                                                                      
 465   M RES C SSSEQI                                                     
 465     PRO A   174                                                      
 465     GLY A   175                                                      
 465     ASP A   176                                                      
 465     GLU A   177                                                      
 465     ARG A   178                                                      
 465     ASP A   179                                                      
 465     THR A   180                                                      
 465     THR A   181                                                      
 465     THR A   182                                                      
 465     ILE A   183                                                      
 500                                                                      
 500 GEOMETRY AND STEREOCHEMISTRY                                         
 500 SUBTOPIC: CLOSE CONTACTS IN SAME ASYMMETRIC UNIT                     
 500                                                                      
 500 THE FOLLOWING ATOMS ARE IN CLOSE CONTACT.                            
 500                                                                      
 500  ATM1  RES C  SSEQI   ATM2  RES C  SSEQI           DISTANCE          
 500   OG   SER A    70     B    CB4 A   401              1.65            
 500                                                                      
 500 REMARK: NULL                                                         
 500                                                                      
 500 GEOMETRY AND STEREOCHEMISTRY                                         
 500 SUBTOPIC: TORSION ANGLES                                             
 500                                                                      
 500 TORSION ANGLES OUTSIDE THE EXPECTED RAMACHANDRAN REGIONS:            
 500 (M=MODEL NUMBER; RES=RESIDUE NAME; C=CHAIN IDENTIFIER;               
 500 SSEQ=SEQUENCE NUMBER; I=INSERTION CODE).                             
 500                                                                      
 500 STANDARD TABLE:                                                      
 500 FORMAT:(10X,I3,1X,A3,1X,A1,I4,A1,4X,F7.2,3X,F7.2)                    
 500                                                                      
 500 EXPECTED VALUES: GJ KLEYWEGT AND TA JONES (1996). PHI/PSI-           
 500 CHOLOGY: RAMACHANDRAN REVISITED. STRUCTURE 4, 1395 - 1400            
 500                                                                      
 500  M RES CSSEQI        PSI       PHI                                   
 500    CYS A  69     -139.52     47.22                                   
 500    TYR A 105       79.90     68.74                                   
 500    ARG A 230     -120.84   -111.88                                   
 500                                                                      
 500 REMARK: NULL                                                         
 800                                                                      
 800 SITE                                                                 
 800 SITE_IDENTIFIER: AC1                                                 
 800 EVIDENCE_CODE: SOFTWARE                                              
 800 SITE_DESCRIPTION: binding site for residue CB4 A 401                 
 900                                                                      
 900 RELATED ENTRIES                                                      
 900 RELATED ID: 5GLD   RELATED DB: PDB                                   
 900 RELATED ID: 5GLC   RELATED DB: PDB                                   
 900 RELATED ID: 5GLA   RELATED DB: PDB                                   
 900 RELATED ID: 5GL9   RELATED DB: PDB                                   

>  <DBREF1>
 5GLB A   26   301  UNP                  A0A2Z4SUB5_BURTH                 

>  <DBREF2>
 5GLB A     A0A2Z4SUB5                         31         294             

>  <SEQADV>
 5GLB GLY A   22  UNP  A0A2Z4SUB           EXPRESSION TAG                 
 5GLB SER A   23  UNP  A0A2Z4SUB           EXPRESSION TAG                 
 5GLB HIS A   24  UNP  A0A2Z4SUB           EXPRESSION TAG                 
 5GLB MET A   25  UNP  A0A2Z4SUB           EXPRESSION TAG                 
 5GLB ILE A  173  UNP  A0A2Z4SUB           INSERTION                      
 5GLB PRO A  174  UNP  A0A2Z4SUB           INSERTION                      
 5GLB GLY A  175  UNP  A0A2Z4SUB           INSERTION                      
 5GLB ASP A  176  UNP  A0A2Z4SUB           INSERTION                      
 5GLB GLU A  177  UNP  A0A2Z4SUB           INSERTION                      
 5GLB ARG A  178  UNP  A0A2Z4SUB           INSERTION                      
 5GLB ASP A  179  UNP  A0A2Z4SUB           INSERTION                      
 5GLB THR A  180  UNP  A0A2Z4SUB           INSERTION                      
 5GLB THR A  181  UNP  A0A2Z4SUB           INSERTION                      
 5GLB THR A  182  UNP  A0A2Z4SUB           INSERTION                      

>  <SEQRES>
   1 A  278  GLY SER HIS MET ARG ASN VAL ALA ALA GLU GLN GLN LEU          
   2 A  278  ARG GLU LEU GLU SER THR PHE ASP GLY ARG LEU GLY PHE          
   3 A  278  VAL ALA LEU ASP THR ALA THR GLY ALA ARG ILE ALA HIS          
   4 A  278  ARG ALA ASP GLU ARG PHE PRO PHE CYS SER THR PHE LYS          
   5 A  278  THR MET LEU SER ALA ALA VAL LEU ALA ARG SER ALA GLY          
   6 A  278  ASP ALA ALA LEU LEU GLN ARG ARG ILE PRO TYR ALA LYS          
   7 A  278  ARG ASP LEU VAL ARG TYR SER PRO ILE THR GLU LYS HIS          
   8 A  278  VAL GLY ALA GLY MET THR VAL ALA GLU LEU CYS ALA ALA          
   9 A  278  THR LEU GLN TYR SER ASP ASN THR ALA ALA ASN LEU LEU          
  10 A  278  ILE ALA LEU LEU GLY GLY PRO GLN ALA VAL THR ALA TYR          
  11 A  278  ALA ARG SER ILE GLY ASP ALA THR PHE ARG LEU ASP ARG          
  12 A  278  ARG GLU THR GLU LEU ASN THR ALA ILE PRO GLY ASP GLU          
  13 A  278  ARG ASP THR THR THR ILE PRO GLY ASP GLU ARG ASP THR          
  14 A  278  THR THR PRO ALA ALA MET ALA ALA SER VAL ARG ARG LEU          
  15 A  278  LEU VAL GLY ASP ALA LEU GLY THR ALA GLN ARG ALA GLN          
  16 A  278  LEU ASN ALA TRP MET LEU GLY ASN LYS THR GLY ASP ALA          
  17 A  278  ARG ILE ARG ALA GLY VAL PRO ALA GLY TRP ARG VAL ALA          
  18 A  278  ASP LYS THR GLY THR GLY ASP TYR GLY THR GLY ASN ASP          
  19 A  278  ILE GLY VAL ALA TYR PRO PRO ASP ARG ALA PRO ILE VAL          
  20 A  278  PHE VAL VAL TYR THR THR MET ARG SER ARG ASN ALA GLN          
  21 A  278  ALA ARG ASP ASP VAL ILE ALA SER ALA ALA ARG ILE ALA          
  22 A  278  ALA ARG ALA PHE VAL                                          

>  <HET>
 CB4  A 401      22                                                       

>  <HETNAM>
     CB4 PINACOL[[2-AMINO-ALPHA-(1-CARBOXY-1-METHYLETHOXYIMINO)-          
   2 CB4  4-THIAZOLEACETYL]AMINO]METHANEBORONATE                          

>  <FORMUL>
   2  CB4    C10 H15 B N4 O6 S                                            
   3  HOH   *255(H2 O)                                                    

>  <HELIX>
   1 AA1 SER A   23  THR A   40  1                                  18    
   2 AA2 THR A   71  ALA A   85  1                                  15    
   3 AA3 ALA A   89  GLN A   92  5                                   4    
   4 AA4 ALA A   98  LEU A  102  5                                   5    
   5 AA5 ILE A  108  HIS A  112  5                                   5    
   6 AA6 VAL A  119  SER A  130  1                                  12    
   7 AA7 ASP A  131  GLY A  143  1                                  13    
   8 AA8 GLY A  144  ILE A  155  1                                  12    
   9 AA9 THR A  167  THR A  171  5                                   5    
  10 AB1 THR A  192  VAL A  205  1                                  14    
  11 AB2 GLY A  210  GLY A  223  1                                  14    
  12 AB3 ARG A  230  VAL A  235  5                                   6    
  13 AB4 ARG A  285  VAL A  301  1                                  17    

>  <SHEET>
   1 AA1 5 ARG A  57  HIS A  60  0                                        
   2 AA1 5 GLY A  43  ASP A  51 -1  N  PHE A  47   O  HIS A  60           
   3 AA1 5 ILE A 269  MET A 277 -1  O  TYR A 274   N  GLY A  46           
   4 AA1 5 THR A 253  TYR A 261 -1  N  ALA A 260   O  ILE A 269           
   5 AA1 5 ARG A 240  GLY A 248 -1  N  GLY A 246   O  ASN A 255           
   1 AA2 2 PHE A  66  PRO A  67  0                                        
   2 AA2 2 THR A 190  THR A 191 -1  O  THR A 191   N  PHE A  66           
   1 AA3 2 ARG A  94  TYR A  97  0                                        
   2 AA3 2 GLY A 114  THR A 118 -1  O  GLY A 114   N  TYR A  97           

>  <CISPEP>
   1 GLU A  166    THR A  167          0         1.59                     

>  <SITE>
   1 AC1 15 CYS A  69  SER A  70  TYR A 105  TYR A 129                    
   2 AC1 15 SER A 130  ASN A 132  ASN A 170  ASP A 207                    
   3 AC1 15 LEU A 209  THR A 226  GLY A 246  THR A 247                    
   4 AC1 15 HOH A 505  HOH A 506  HOH A 543                               

>  <ORIGX1>
      1.000000  0.000000  0.000000        0.00000                         

>  <ORIGX2>
      0.000000  1.000000  0.000000        0.00000                         

>  <ORIGX3>
      0.000000  0.000000  1.000000        0.00000                         

>  <SCALE1>
      0.014274  0.000000  0.000000        0.00000                         

>  <SCALE2>
      0.000000  0.010766  0.000000        0.00000                         

>  <SCALE3>
      0.000000  0.000000  0.028577        0.00000                         

>  <MASTER>
      255    0    1   13    9    0    4    6 2289    1   22   22          

$$$$
