start_structures/Ligand_Substrate/Ligand_Complex_Stripped/CD8_3VFF.pdb
 OpenBabel08222315193D

 30 31  0  0  1  0  0  0  0  0999 V2000
   27.1160   15.0790    7.1910 N   0  0  0  0  0  0  0  0  0  0  0  0
   27.6970   15.0510    8.5260 C   0  0  2  0  0  0  0  0  0  0  0  0
   28.8170   14.0210    8.7070 C   0  0  0  0  0  0  0  0  0  0  0  0
   29.3310   13.8740    9.8000 O   0  0  0  0  0  0  0  0  0  0  0  0
   26.6510   14.9960    9.6710 C   0  0  0  0  0  0  0  0  0  0  0  0
   25.3590   14.5770    9.2770 O   0  0  0  0  0  0  0  0  0  0  0  0
   20.1380   12.6450    9.4770 C   0  0  0  0  0  0  0  0  0  0  0  0
   25.1720   17.8080    9.2980 C   0  0  0  0  0  0  0  0  0  0  0  0
   21.7710   11.0340    9.5920 O   0  0  0  0  0  0  0  0  0  0  0  0
   23.5360   17.9360    7.6900 O   0  0  0  0  0  0  0  0  0  0  0  0
   24.5530   15.8780    7.6230 O   0  0  0  0  0  0  0  0  0  0  0  0
   23.7390   11.3780   10.2650 O   0  0  0  0  0  0  0  0  0  0  0  0
   18.8070   18.2570    6.3250 C   0  0  0  0  0  0  0  0  0  0  0  0
   19.1150   16.9740    6.7300 C   0  0  0  0  0  0  0  0  0  0  0  0
   19.7330   19.2690    6.5010 C   0  0  0  0  0  0  0  0  0  0  0  0
   20.3460   16.7110    7.3110 C   0  0  0  0  0  0  0  0  0  0  0  0
   20.9650   19.0030    7.0820 C   0  0  0  0  0  0  0  0  0  0  0  0
   20.6370   14.8670   10.0440 C   0  0  0  0  0  0  0  0  0  0  0  0
   23.3480   13.8990   10.6240 N   0  0  0  0  0  0  0  0  0  0  0  0
   22.3860   16.5800    9.0810 N   0  0  0  0  0  0  0  0  0  0  0  0
   24.1990   17.4060   10.2560 O   0  0  0  0  0  0  0  0  0  0  0  0
   21.4980   15.6950   11.3880 S   0  0  0  0  0  0  0  0  0  0  0  0
   21.0560   13.5630    9.9390 C   0  0  0  0  0  0  0  0  0  0  0  0
   22.6240   11.8080   10.0100 C   0  0  0  0  0  0  0  0  0  0  0  0
   22.4890   17.4290    8.0720 C   0  0  0  0  0  0  0  0  0  0  0  0
   24.5690   15.5550    8.7970 C   0  0  0  0  0  0  0  0  0  0  0  0
   22.3440   13.1310   10.2050 C   0  0  0  0  0  0  0  0  0  0  0  0
   21.2750   17.7190    7.4810 C   0  0  0  0  0  0  0  0  0  0  0  0
   23.2280   15.3350   10.9330 C   0  0  2  0  0  0  0  0  0  0  0  0
   23.6060   16.2260    9.7650 C   0  0  2  0  0  0  0  0  0  0  0  0
  2  1  1  6  0  0  0
  2  3  1  0  0  0  0
  2  5  1  0  0  0  0
  3  4  2  0  0  0  0
  6 26  1  0  0  0  0
  6  5  1  0  0  0  0
  7 23  2  0  0  0  0
  8 21  1  0  0  0  0
  9 24  2  0  0  0  0
 10 25  2  0  0  0  0
 11 26  2  0  0  0  0
 12 24  1  0  0  0  0
 13 14  2  0  0  0  0
 13 15  1  0  0  0  0
 14 16  1  0  0  0  0
 15 17  2  0  0  0  0
 16 28  2  0  0  0  0
 17 28  1  0  0  0  0
 18 22  1  0  0  0  0
 18 23  1  0  0  0  0
 19 27  2  0  0  0  0
 19 29  1  0  0  0  0
 20 25  1  0  0  0  0
 21 30  1  0  0  0  0
 22 29  1  0  0  0  0
 23 27  1  0  0  0  0
 24 27  1  0  0  0  0
 25 28  1  0  0  0  0
 26 30  1  0  0  0  0
 29 30  1  6  0  0  0
 30 20  1  6  0  0  0
M  END
>  <HEADER>
    HYDROLASE/HYDROLASE INHIBITOR           09-JAN-12   3VFF              

>  <TITLE>
    BLAC E166A CDC-OME ACYL-INTERMEDIATE COMPLEX                          

>  <COMPND>
    MOL_ID: 1;                                                            
   2 MOLECULE: BETA-LACTAMASE;                                            
   3 CHAIN: A, B, C, D;                                                   
   4 SYNONYM: PENICILLINASE;                                              
   5 EC: 3.5.2.6;                                                         
   6 ENGINEERED: YES;                                                     
   7 MUTATION: YES                                                        

>  <SOURCE>
    MOL_ID: 1;                                                            
   2 ORGANISM_SCIENTIFIC: MYCOBACTERIUM TUBERCULOSIS;                     
   3 ORGANISM_TAXID: 1773;                                                
   4 GENE: BLAA, BLAC, MT2128, MTCY49.07C, RV2068C;                       
   5 EXPRESSION_SYSTEM: ESCHERICHIA COLI;                                 
   6 EXPRESSION_SYSTEM_TAXID: 562;                                        
   7 EXPRESSION_SYSTEM_STRAIN: BL21(DE3);                                 
   8 EXPRESSION_SYSTEM_VECTOR_TYPE: PLASMID;                              
   9 EXPRESSION_SYSTEM_PLASMID: PET28B                                    

>  <KEYWDS>
    BETA-LACTAMASE, SERINE HYDROLASE, SERINE ESTERASE, ACYL-INTERMEDIATE, 
   2 HYDROLASE-HYDROLASE INHIBITOR COMPLEX                                

>  <EXPDTA>
    X-RAY DIFFRACTION                                                     

>  <AUTHOR>
    J.A.MIRE,J.C.SACCHETTINI,TB STRUCTURAL GENOMICS CONSORTIUM (TBSGC)    

>  <REVDAT>
   1   19-SEP-12 3VFF    0                                                

>  <JRNL>
      AUTH   H.XIE,J.A.MIRE,Y.KONG,M.CHANG,J.C.SACCHETTINI,J.D.CIRILLO,   
      AUTH 2 J.RAO                                                        
      TITL   BLAC-SPECIFIC FLUOROGENIC PROBES FOR RAPID TUBERCULOSIS      
      TITL 2 DETECTION                                                    
      REF    TO BE PUBLISHED                                              
      REFN                                                                

>  <REMARK>
   2                                                                      
   2 RESOLUTION.    2.78 ANGSTROMS.                                       
   3                                                                      
   3 REFINEMENT.                                                          
   3   PROGRAM     : PHENIX (PHENIX.REFINE: 1.7.3_928)                    
   3   AUTHORS     : PAUL ADAMS,PAVEL AFONINE,VICENT CHEN,IAN             
   3               : DAVIS,KRESHNA GOPAL,RALF GROSSE-                     
   3               : KUNSTLEVE,LI-WEI HUNG,ROBERT IMMORMINO,              
   3               : TOM IOERGER,AIRLIE MCCOY,ERIK MCKEE,NIGEL            
   3               : MORIARTY,REETAL PAI,RANDY READ,JANE                  
   3               : RICHARDSON,DAVID RICHARDSON,TOD ROMO,JIM             
   3               : SACCHETTINI,NICHOLAS SAUTER,JACOB SMITH,             
   3               : LAURENT STORONI,TOM TERWILLIGER,PETER                
   3               : ZWART                                                
   3                                                                      
   3    REFINEMENT TARGET : ML                                            
   3                                                                      
   3  DATA USED IN REFINEMENT.                                            
   3   RESOLUTION RANGE HIGH (ANGSTROMS) : 2.78                           
   3   RESOLUTION RANGE LOW  (ANGSTROMS) : 47.16                          
   3   MIN(FOBS/SIGMA_FOBS)              : 0.000                          
   3   COMPLETENESS FOR RANGE        (%) : 97.2                           
   3   NUMBER OF REFLECTIONS             : 38850                          
   3                                                                      
   3  FIT TO DATA USED IN REFINEMENT.                                     
   3   R VALUE     (WORKING + TEST SET) : 0.246                           
   3   R VALUE            (WORKING SET) : 0.245                           
   3   FREE R VALUE                     : 0.260                           
   3   FREE R VALUE TEST SET SIZE   (%) : 5.150                           
   3   FREE R VALUE TEST SET COUNT      : 2001                            
   3                                                                      
   3  FIT TO DATA USED IN REFINEMENT (IN BINS).                           
   3   BIN  RESOLUTION RANGE  COMPL.    NWORK NFREE   RWORK  RFREE        
   3     1 47.1676 -  6.6862    0.94     2604   143  0.2523 0.2524        
   3     2  6.6862 -  5.3093    0.99     2712   144  0.2768 0.3080        
   3     3  5.3093 -  4.6389    0.97     2635   145  0.2319 0.2335        
   3     4  4.6389 -  4.2150    0.98     2646   147  0.2054 0.2356        
   3     5  4.2150 -  3.9131    1.00     2706   150  0.2129 0.2333        
   3     6  3.9131 -  3.6824    1.00     2700   140  0.2200 0.2342        
   3     7  3.6824 -  3.4981    1.00     2705   142  0.2225 0.2165        
   3     8  3.4981 -  3.3459    1.00     2671   145  0.2431 0.2558        
   3     9  3.3459 -  3.2171    1.00     2699   144  0.2690 0.3058        
   3    10  3.2171 -  3.1061    1.00     2714   151  0.2684 0.2969        
   3    11  3.1061 -  3.0090    1.00     2689   142  0.2744 0.2975        
   3    12  3.0090 -  2.9230    1.00     2674   143  0.2966 0.3005        
   3    13  2.9230 -  2.8461    1.00     2685   141  0.3293 0.3549        
   3    14  2.8461 -  2.7770    0.75     2009   124  0.3284 0.3246        
   3                                                                      
   3  BULK SOLVENT MODELLING.                                             
   3   METHOD USED        : FLAT BULK SOLVENT MODEL                       
   3   SOLVENT RADIUS     : 1.20                                          
   3   SHRINKAGE RADIUS   : 0.98                                          
   3   K_SOL              : 0.32                                          
   3   B_SOL              : 45.30                                         
   3                                                                      
   3  ERROR ESTIMATES.                                                    
   3   COORDINATE ERROR (MAXIMUM-LIKELIHOOD BASED)     : 0.410            
   3   PHASE ERROR (DEGREES, MAXIMUM-LIKELIHOOD BASED) : 27.570           
   3                                                                      
   3  B VALUES.                                                           
   3   FROM WILSON PLOT           (A**2) : 68.70                          
   3   MEAN B VALUE      (OVERALL, A**2) : 72.94                          
   3   OVERALL ANISOTROPIC B VALUE.                                       
   3    B11 (A**2) : 16.99490                                             
   3    B22 (A**2) : -21.93370                                            
   3    B33 (A**2) : 4.93880                                              
   3    B12 (A**2) : -0.00000                                             
   3    B13 (A**2) : -14.91670                                            
   3    B23 (A**2) : 0.00000                                              
   3                                                                      
   3  TWINNING INFORMATION.                                               
   3   FRACTION: NULL                                                     
   3   OPERATOR: NULL                                                     
   3                                                                      
   3  DEVIATIONS FROM IDEAL VALUES.                                       
   3                 RMSD          COUNT                                  
   3   BOND      :  0.011           7549                                  
   3   ANGLE     :  1.277          10366                                  
   3   CHIRALITY :  0.070           1229                                  
   3   PLANARITY :  0.008           1353                                  
   3   DIHEDRAL  : 14.144           2533                                  
   3                                                                      
   3  TLS DETAILS                                                         
   3   NUMBER OF TLS GROUPS  : NULL                                       
   3                                                                      
   3  NCS DETAILS                                                         
   3   NUMBER OF NCS GROUPS : NULL                                        
   3                                                                      
   3  OTHER REFINEMENT REMARKS: NULL                                      
   4                                                                      
   4 3VFF COMPLIES WITH FORMAT V. 3.30, 13-JUL-11                         
 100                                                                      
 100 THIS ENTRY HAS BEEN PROCESSED BY RCSB ON 12-JAN-12.                  
 100 THE RCSB ID CODE IS RCSB069977.                                      
 200                                                                      
 200 EXPERIMENTAL DETAILS                                                 
 200  EXPERIMENT TYPE                : X-RAY DIFFRACTION                  
 200  DATE OF DATA COLLECTION        : NULL                               
 200  TEMPERATURE           (KELVIN) : 120                                
 200  PH                             : 4.5                                
 200  NUMBER OF CRYSTALS USED        : 1                                  
 200                                                                      
 200  SYNCHROTRON              (Y/N) : Y                                  
 200  RADIATION SOURCE               : APS                                
 200  BEAMLINE                       : 19-ID                              
 200  X-RAY GENERATOR MODEL          : NULL                               
 200  MONOCHROMATIC OR LAUE    (M/L) : M                                  
 200  WAVELENGTH OR RANGE        (A) : 0.91943                            
 200  MONOCHROMATOR                  : NULL                               
 200  OPTICS                         : NULL                               
 200                                                                      
 200  DETECTOR TYPE                  : NULL                               
 200  DETECTOR MANUFACTURER          : NULL                               
 200  INTENSITY-INTEGRATION SOFTWARE : DENZO                              
 200  DATA SCALING SOFTWARE          : SCALEPACK                          
 200                                                                      
 200  NUMBER OF UNIQUE REFLECTIONS   : 38850                              
 200  RESOLUTION RANGE HIGH      (A) : 2.777                              
 200  RESOLUTION RANGE LOW       (A) : 50.000                             
 200  REJECTION CRITERIA  (SIGMA(I)) : 1.350                              
 200                                                                      
 200 OVERALL.                                                             
 200  COMPLETENESS FOR RANGE     (%) : 99.0                               
 200  DATA REDUNDANCY                : 4.100                              
 200  R MERGE                    (I) : 0.12000                            
 200  R SYM                      (I) : NULL                               
 200  <I/SIGMA(I)> FOR THE DATA SET  : NULL                               
 200                                                                      
 200 IN THE HIGHEST RESOLUTION SHELL.                                     
 200  HIGHEST RESOLUTION SHELL, RANGE HIGH (A) : 2.78                     
 200  HIGHEST RESOLUTION SHELL, RANGE LOW  (A) : 2.85                     
 200  COMPLETENESS FOR SHELL     (%) : 75.0                               
 200  DATA REDUNDANCY IN SHELL       : NULL                               
 200  R MERGE FOR SHELL          (I) : NULL                               
 200  R SYM FOR SHELL            (I) : NULL                               
 200  <I/SIGMA(I)> FOR SHELL         : NULL                               
 200                                                                      
 200 DIFFRACTION PROTOCOL: SINGLE WAVELENGTH                              
 200 METHOD USED TO DETERMINE THE STRUCTURE: MOLECULAR REPLACEMENT        
 200 SOFTWARE USED: PHASER                                                
 200 STARTING MODEL: PDB ENTRY 2GDN                                       
 200                                                                      
 200 REMARK: NULL                                                         
 280                                                                      
 280 CRYSTAL                                                              
 280 SOLVENT CONTENT, VS   (%): 62.49                                     
 280 MATTHEWS COEFFICIENT, VM (ANGSTROMS**3/DA): 3.28                     
 280                                                                      
 280 CRYSTALLIZATION CONDITIONS: PH 4.5, VAPOR DIFFUSION, HANGING DROP,   
 280  TEMPERATURE 291K                                                    
 290                                                                      
 290 CRYSTALLOGRAPHIC SYMMETRY                                            
 290 SYMMETRY OPERATORS FOR SPACE GROUP: P 1 21 1                         
 290                                                                      
 290      SYMOP   SYMMETRY                                                
 290     NNNMMM   OPERATOR                                                
 290       1555   X,Y,Z                                                   
 290       2555   -X,Y+1/2,-Z                                             
 290                                                                      
 290     WHERE NNN -> OPERATOR NUMBER                                     
 290           MMM -> TRANSLATION VECTOR                                  
 290                                                                      
 290 CRYSTALLOGRAPHIC SYMMETRY TRANSFORMATIONS                            
 290 THE FOLLOWING TRANSFORMATIONS OPERATE ON THE ATOM/HETATM             
 290 RECORDS IN THIS ENTRY TO PRODUCE CRYSTALLOGRAPHICALLY                
 290 RELATED MOLECULES.                                                   
 290   SMTRY1   1  1.000000  0.000000  0.000000        0.00000            
 290   SMTRY2   1  0.000000  1.000000  0.000000        0.00000            
 290   SMTRY3   1  0.000000  0.000000  1.000000        0.00000            
 290   SMTRY1   2 -1.000000  0.000000  0.000000        0.00000            
 290   SMTRY2   2  0.000000  1.000000  0.000000       48.30150            
 290   SMTRY3   2  0.000000  0.000000 -1.000000        0.00000            
 290                                                                      
 290 REMARK: NULL                                                         
 300                                                                      
 300 BIOMOLECULE: 1, 2, 3, 4                                              
 300 SEE REMARK 350 FOR THE AUTHOR PROVIDED AND/OR PROGRAM                
 300 GENERATED ASSEMBLY INFORMATION FOR THE STRUCTURE IN                  
 300 THIS ENTRY. THE REMARK MAY ALSO PROVIDE INFORMATION ON               
 300 BURIED SURFACE AREA.                                                 
 350                                                                      
 350 COORDINATES FOR A COMPLETE MULTIMER REPRESENTING THE KNOWN           
 350 BIOLOGICALLY SIGNIFICANT OLIGOMERIZATION STATE OF THE                
 350 MOLECULE CAN BE GENERATED BY APPLYING BIOMT TRANSFORMATIONS          
 350 GIVEN BELOW.  BOTH NON-CRYSTALLOGRAPHIC AND                          
 350 CRYSTALLOGRAPHIC OPERATIONS ARE GIVEN.                               
 350                                                                      
 350 BIOMOLECULE: 1                                                       
 350 AUTHOR DETERMINED BIOLOGICAL UNIT: MONOMERIC                         
 350 SOFTWARE DETERMINED QUATERNARY STRUCTURE: MONOMERIC                  
 350 SOFTWARE USED: PISA                                                  
 350 APPLY THE FOLLOWING TO CHAINS: A                                     
 350   BIOMT1   1  1.000000  0.000000  0.000000        0.00000            
 350   BIOMT2   1  0.000000  1.000000  0.000000        0.00000            
 350   BIOMT3   1  0.000000  0.000000  1.000000        0.00000            
 350                                                                      
 350 BIOMOLECULE: 2                                                       
 350 AUTHOR DETERMINED BIOLOGICAL UNIT: MONOMERIC                         
 350 SOFTWARE DETERMINED QUATERNARY STRUCTURE: MONOMERIC                  
 350 SOFTWARE USED: PISA                                                  
 350 APPLY THE FOLLOWING TO CHAINS: B                                     
 350   BIOMT1   1  1.000000  0.000000  0.000000        0.00000            
 350   BIOMT2   1  0.000000  1.000000  0.000000        0.00000            
 350   BIOMT3   1  0.000000  0.000000  1.000000        0.00000            
 350                                                                      
 350 BIOMOLECULE: 3                                                       
 350 AUTHOR DETERMINED BIOLOGICAL UNIT: MONOMERIC                         
 350 SOFTWARE DETERMINED QUATERNARY STRUCTURE: MONOMERIC                  
 350 SOFTWARE USED: PISA                                                  
 350 APPLY THE FOLLOWING TO CHAINS: C                                     
 350   BIOMT1   1  1.000000  0.000000  0.000000        0.00000            
 350   BIOMT2   1  0.000000  1.000000  0.000000        0.00000            
 350   BIOMT3   1  0.000000  0.000000  1.000000        0.00000            
 350                                                                      
 350 BIOMOLECULE: 4                                                       
 350 AUTHOR DETERMINED BIOLOGICAL UNIT: MONOMERIC                         
 350 SOFTWARE DETERMINED QUATERNARY STRUCTURE: MONOMERIC                  
 350 SOFTWARE USED: PISA                                                  
 350 APPLY THE FOLLOWING TO CHAINS: D                                     
 350   BIOMT1   1  1.000000  0.000000  0.000000        0.00000            
 350   BIOMT2   1  0.000000  1.000000  0.000000        0.00000            
 350   BIOMT3   1  0.000000  0.000000  1.000000        0.00000            
 465                                                                      
 465 MISSING RESIDUES                                                     
 465 THE FOLLOWING RESIDUES WERE NOT LOCATED IN THE                       
 465 EXPERIMENT. (M=MODEL NUMBER; RES=RESIDUE NAME; C=CHAIN               
 465 IDENTIFIER; SSSEQ=SEQUENCE NUMBER; I=INSERTION CODE.)                
 465                                                                      
 465   M RES C SSSEQI                                                     
 465     MET A     9                                                      
 465     GLY A    10                                                      
 465     SER A    11                                                      
 465     SER A    12                                                      
 465     HIS A    13                                                      
 465     HIS A    14                                                      
 465     HIS A    15                                                      
 465     HIS A    16                                                      
 465     HIS A    17                                                      
 465     HIS A    18                                                      
 465     SER A    19                                                      
 465     SER A    20                                                      
 465     GLY A    21                                                      
 465     GLU A    22                                                      
 465     ASN A    23                                                      
 465     LEU A    24                                                      
 465     TYR A    25                                                      
 465     PHE A    26                                                      
 465     GLN A    27                                                      
 465     GLY A    28                                                      
 465     MET B     9                                                      
 465     GLY B    10                                                      
 465     SER B    11                                                      
 465     SER B    12                                                      
 465     HIS B    13                                                      
 465     HIS B    14                                                      
 465     HIS B    15                                                      
 465     HIS B    16                                                      
 465     HIS B    17                                                      
 465     HIS B    18                                                      
 465     SER B    19                                                      
 465     SER B    20                                                      
 465     GLY B    21                                                      
 465     GLU B    22                                                      
 465     ASN B    23                                                      
 465     LEU B    24                                                      
 465     TYR B    25                                                      
 465     PHE B    26                                                      
 465     GLN B    27                                                      
 465     GLY B    28                                                      
 465     ALA B   164                                                      
 465     GLU B   165                                                      
 465     ALA B   166                                                      
 465     PRO B   167                                                      
 465     GLU B   168                                                      
 465     LEU B   169                                                      
 465     ASN B   170                                                      
 465     ARG B   171                                                      
 465     ASP B   172                                                      
 465     MET C     9                                                      
 465     GLY C    10                                                      
 465     SER C    11                                                      
 465     SER C    12                                                      
 465     HIS C    13                                                      
 465     HIS C    14                                                      
 465     HIS C    15                                                      
 465     HIS C    16                                                      
 465     HIS C    17                                                      
 465     HIS C    18                                                      
 465     SER C    19                                                      
 465     SER C    20                                                      
 465     GLY C    21                                                      
 465     GLU C    22                                                      
 465     ASN C    23                                                      
 465     LEU C    24                                                      
 465     TYR C    25                                                      
 465     PHE C    26                                                      
 465     GLN C    27                                                      
 465     GLY C    28                                                      
 465     ALA C   164                                                      
 465     GLU C   165                                                      
 465     ALA C   166                                                      
 465     PRO C   167                                                      
 465     GLU C   168                                                      
 465     LEU C   169                                                      
 465     ASN C   170                                                      
 465     ARG C   171                                                      
 465     ASP C   172                                                      
 465     MET D     9                                                      
 465     GLY D    10                                                      
 465     SER D    11                                                      
 465     SER D    12                                                      
 465     HIS D    13                                                      
 465     HIS D    14                                                      
 465     HIS D    15                                                      
 465     HIS D    16                                                      
 465     HIS D    17                                                      
 465     HIS D    18                                                      
 465     SER D    19                                                      
 465     SER D    20                                                      
 465     GLY D    21                                                      
 465     GLU D    22                                                      
 465     ASN D    23                                                      
 465     LEU D    24                                                      
 465     TYR D    25                                                      
 465     PHE D    26                                                      
 465     GLN D    27                                                      
 465     GLY D    28                                                      
 470                                                                      
 470 MISSING ATOM                                                         
 470 THE FOLLOWING RESIDUES HAVE MISSING ATOMS (M=MODEL NUMBER;           
 470 RES=RESIDUE NAME; C=CHAIN IDENTIFIER; SSEQ=SEQUENCE NUMBER;          
 470 I=INSERTION CODE):                                                   
 470   M RES CSSEQI  ATOMS                                                
 470     ASP A  29    CG   OD1  OD2                                       
 470     ARG A  33    CG   CD   NE   CZ   NH1  NH2                        
 470     GLU A  36    CG   CD   OE1  OE2                                  
 470     ARG A  39    CG   CD   NE   CZ   NH1  NH2                        
 470     ASP A  42    CG   OD1  OD2                                       
 470     THR A  52    OG1  CG2                                            
 470     GLU A  59    CG   CD   OE1  OE2                                  
 470     LYS A  93    CG   CD   CE   NZ                                   
 470     ILE A  95    CG1  CG2  CD1                                       
 470     SER A  99    OG                                                  
 470     ASP A 100    CG   OD1  OD2                                       
 470     ARG A 103    CG   CD   NE   CZ   NH1  NH2                        
 470     ILE A 105    CG1  CG2  CD1                                       
 470     VAL A 108    CG1  CG2                                            
 470     GLN A 110    CG   CD   OE1  NE2                                  
 470     VAL A 113    CG1  CG2                                            
 470     GLN A 114    CG   CD   OE1  NE2                                  
 470     ASN A 136    CG   OD1  ND2                                       
 470     LEU A 139    CG   CD1  CD2                                       
 470     LEU A 142    CG   CD1  CD2                                       
 470     LEU A 162    CG   CD1  CD2                                       
 470     ASP A 163    CG   OD1  OD2                                       
 470     GLU A 165    CG   CD   OE1  OE2                                  
 470     GLU A 168    CG   CD   OE1  OE2                                  
 470     LEU A 169    CG   CD1  CD2                                       
 470     ASN A 170    CG   OD1  ND2                                       
 470     ARG A 171    CG   CD   NE   CZ   NH1  NH2                        
 470     GLU A 177    CG   CD   OE1  OE2                                  
 470     ARG A 178    CG   CD   NE   CZ   NH1  NH2                        
 470     ASP A 202    CG   OD1  OD2                                       
 470     LYS A 203    CG   CD   CE   NZ                                   
 470     ASP A 209    CG   OD1  OD2                                       
 470     ASP A 228    CG   OD1  OD2                                       
 470     ASP A 240    CG   OD1  OD2                                       
 470     TYR A 241    CG   CD1  CD2  CE1  CE2  CZ   OH                    
 470     ASP B  29    CG   OD1  OD2                                       
 470     LEU B  30    CG   CD1  CD2                                       
 470     ASP B  32    CG   OD1  OD2                                       
 470     GLU B  36    CG   CD   OE1  OE2                                  
 470     THR B  52    OG1  CG2                                            
 470     GLU B  59    CG   CD   OE1  OE2                                  
 470     PHE B  72    CG   CD1  CD2  CE1  CE2  CZ                         
 470     THR B  89    OG1  CG2                                            
 470     THR B  98    OG1  CG2                                            
 470     SER B  99    OG                                                  
 470     ASP B 100    CG   OD1  OD2                                       
 470     ILE B 105    CG1  CG2  CD1                                       
 470     GLN B 111    CG   CD   OE1  NE2                                  
 470     GLN B 114    CG   CD   OE1  NE2                                  
 470     THR B 115    OG1  CG2                                            
 470     LEU B 142    CG   CD1  CD2                                       
 470     ARG B 153    CG   CD   NE   CZ   NH1  NH2                        
 470     ARG B 161    CG   CD   NE   CZ   NH1  NH2                        
 470     LEU B 162    CG   CD1  CD2                                       
 470     GLU B 177    CG   CD   OE1  OE2                                  
 470     ARG B 178    CG   CD   NE   CZ   NH1  NH2                        
 470     THR B 181    OG1  CG2                                            
 470     ASN B 197    CG   OD1  ND2                                       
 470     ASP B 202    CG   OD1  OD2                                       
 470     LYS B 219    CG   CD   CE   NZ                                   
 470     LYS B 230    CG   CD   CE   NZ                                   
 470     ASP B 240    CG   OD1  OD2                                       
 470     TYR B 272    CG   CD1  CD2  CE1  CE2  CZ   OH                    
 470     ASP B 273    CG   OD1  OD2                                       
 470     GLU B 275    CG   CD   OE1  OE2                                  
 470     ARG B 277    CG   CD   NE   CZ   NH1  NH2                        
 470     GLU B 278    CG   CD   OE1  OE2                                  
 470     GLU B 283    CG   CD   OE1  OE2                                  
 470     ASP C  29    CG   OD1  OD2                                       
 470     ASP C  32    CG   OD1  OD2                                       
 470     GLU C  36    CG   CD   OE1  OE2                                  
 470     ARG C  39    CG   CD   NE   CZ   NH1  NH2                        
 470     ASP C  42    CG   OD1  OD2                                       
 470     THR C  54    OG1  CG2                                            
 470     GLU C  59    CG   CD   OE1  OE2                                  
 470     ILE C  95    CG1  CG2  CD1                                       
 470     SER C  99    OG                                                  
 470     ASP C 100    CG   OD1  OD2                                       
 470     ARG C 103    CG   CD   NE   CZ   NH1  NH2                        
 470     SER C 104    OG                                                  
 470     ILE C 105    CG1  CG2  CD1                                       
 470     GLN C 110    CG   CD   OE1  NE2                                  
 470     GLN C 111    CG   CD   OE1  NE2                                  
 470     GLN C 114    CG   CD   OE1  NE2                                  
 470     GLN C 121    CG   CD   OE1  NE2                                  
 470     VAL C 159    CG1  CG2                                            
 470     ARG C 161    CG   CD   NE   CZ   NH1  NH2                        
 470     LEU C 162    CG   CD1  CD2                                       
 470     GLU C 177    CG   CD   OE1  OE2                                  
 470     ARG C 178    CG   CD   NE   CZ   NH1  NH2                        
 470     ASN C 197    CG   OD1  ND2                                       
 470     ASP C 209    CG   OD1  OD2                                       
 470     LYS C 219    CG   CD   CE   NZ                                   
 470     ASP C 228    CG   OD1  OD2                                       
 470     LYS C 230    CG   CD   CE   NZ                                   
 470     ASP C 240    CG   OD1  OD2                                       
 470     ILE C 247    CG1  CG2  CD1                                       
 470     ASP C 273    CG   OD1  OD2                                       
 470     GLU C 275    CG   CD   OE1  OE2                                  
 470     ARG C 277    CG   CD   NE   CZ   NH1  NH2                        
 470     GLU C 283    CG   CD   OE1  OE2                                  
 470     ASP D  29    CG   OD1  OD2                                       
 470     ARG D  33    CG   CD   NE   CZ   NH1  NH2                        
 470     GLU D  36    CG   CD   OE1  OE2                                  
 470     ASP D  42    CG   OD1  OD2                                       
 470     THR D  55    OG1  CG2                                            
 470     GLU D  59    CG   CD   OE1  OE2                                  
 470     ASN D  86    CG   OD1  ND2                                       
 470     ILE D  95    CG1  CG2  CD1                                       
 470     ASP D 100    CG   OD1  OD2                                       
 470     ILE D 102    CG1  CG2  CD1                                       
 470     ARG D 103    CG   CD   NE   CZ   NH1  NH2                        
 470     ILE D 105    CG1  CG2  CD1                                       
 470     GLN D 111    CG   CD   OE1  NE2                                  
 470     VAL D 113    CG1  CG2                                            
 470     GLN D 114    CG   CD   OE1  NE2                                  
 470     ASP D 131    CG   OD1  OD2                                       
 470     ASN D 136    CG   OD1  ND2                                       
 470     LEU D 142    CG   CD1  CD2                                       
 470     THR D 158    OG1  CG2                                            
 470     VAL D 159    CG1  CG2                                            
 470     LEU D 162    CG   CD1  CD2                                       
 470     GLU D 168    CG   CD   OE1  OE2                                  
 470     LEU D 169    CG   CD1  CD2                                       
 470     ASN D 170    CG   OD1  ND2                                       
 470     ARG D 171    CG   CD   NE   CZ   NH1  NH2                        
 470     ASP D 172    CG   OD1  OD2                                       
 470     GLU D 177    CG   CD   OE1  OE2                                  
 470     ARG D 178    CG   CD   NE   CZ   NH1  NH2                        
 470     ASN D 197    CG   OD1  ND2                                       
 470     ASP D 202    CG   OD1  OD2                                       
 470     ARG D 213    CG   CD   NE   CZ   NH1  NH2                        
 470     LYS D 219    CG   CD   CE   NZ                                   
 470     ASP D 228    CG   OD1  OD2                                       
 470     LYS D 230    CG   CD   CE   NZ                                   
 470     VAL D 257    CG1  CG2                                            
 470     TYR D 272    CG   CD1  CD2  CE1  CE2  CZ   OH                    
 470     ASP D 273    CG   OD1  OD2                                       
 470     GLU D 275    CG   CD   OE1  OE2                                  
 470     ARG D 277    CG   CD   NE   CZ   NH1  NH2                        
 500                                                                      
 500 GEOMETRY AND STEREOCHEMISTRY                                         
 500 SUBTOPIC: CLOSE CONTACTS IN SAME ASYMMETRIC UNIT                     
 500                                                                      
 500 THE FOLLOWING ATOMS ARE IN CLOSE CONTACT.                            
 500                                                                      
 500  ATM1  RES C  SSEQI   ATM2  RES C  SSEQI           DISTANCE          
 500   CB   SER C    70     CBA  CD8 C   301              2.18            
 500                                                                      
 500 REMARK: NULL                                                         
 500                                                                      
 500 GEOMETRY AND STEREOCHEMISTRY                                         
 500 SUBTOPIC: TORSION ANGLES                                             
 500                                                                      
 500 TORSION ANGLES OUTSIDE THE EXPECTED RAMACHANDRAN REGIONS:            
 500 (M=MODEL NUMBER; RES=RESIDUE NAME; C=CHAIN IDENTIFIER;               
 500 SSEQ=SEQUENCE NUMBER; I=INSERTION CODE).                             
 500                                                                      
 500 STANDARD TABLE:                                                      
 500 FORMAT:(10X,I3,1X,A3,1X,A1,I4,A1,4X,F7.2,3X,F7.2)                    
 500                                                                      
 500 EXPECTED VALUES: GJ KLEYWEGT AND TA JONES (1996). PHI/PSI-           
 500 CHOLOGY: RAMACHANDRAN REVISITED. STRUCTURE 4, 1395 - 1400            
 500                                                                      
 500  M RES CSSEQI        PSI       PHI                                   
 500    CYS A  69     -139.21     43.74                                   
 500    LEU A 139      -70.71    -61.21                                   
 500    ALA A 140      -59.49    -28.83                                   
 500    ASP A 141       12.80    -57.76                                   
 500    PRO A 145      162.01    -42.82                                   
 500    PRO A 167     -151.89   -114.60                                   
 500    GLU A 168      -36.37    100.26                                   
 500    ARG A 220     -140.50   -120.81                                   
 500    ILE A 221      -37.73    -34.38                                   
 500    PRO B  50      157.23    -35.82                                   
 500    THR B  52     -143.41    -91.75                                   
 500    CYS B  69     -154.50     59.71                                   
 500    ARG B 220     -131.95   -120.46                                   
 500    CYS C  69     -147.69     76.40                                   
 500    PRO C 145     -171.14    -50.51                                   
 500    ARG C 161      109.09   -174.10                                   
 500    ARG C 220     -110.37   -130.37                                   
 500    CYS D  69     -136.31     46.85                                   
 500    ASP D 131      105.53    -59.59                                   
 500    PRO D 145     -179.38    -47.16                                   
 500    GLU D 168      -40.09    -28.75                                   
 500    LEU D 169     -102.11    -31.81                                   
 500    ASN D 170       50.26    -60.70                                   
 500    ARG D 220     -102.43   -115.90                                   
 500    TYR D 241       23.57     47.58                                   
 500                                                                      
 500 REMARK: NULL                                                         
 800                                                                      
 800 SITE                                                                 
 800 SITE_IDENTIFIER: AC1                                                 
 800 EVIDENCE_CODE: SOFTWARE                                              
 800 SITE_DESCRIPTION: BINDING SITE FOR RESIDUE CD8 A 301                 
 800                                                                      
 800 SITE_IDENTIFIER: AC2                                                 
 800 EVIDENCE_CODE: SOFTWARE                                              
 800 SITE_DESCRIPTION: BINDING SITE FOR RESIDUE CD8 B 301                 
 800                                                                      
 800 SITE_IDENTIFIER: AC3                                                 
 800 EVIDENCE_CODE: SOFTWARE                                              
 800 SITE_DESCRIPTION: BINDING SITE FOR RESIDUE PO4 B 302                 
 800                                                                      
 800 SITE_IDENTIFIER: AC4                                                 
 800 EVIDENCE_CODE: SOFTWARE                                              
 800 SITE_DESCRIPTION: BINDING SITE FOR RESIDUE CD8 C 301                 
 800                                                                      
 800 SITE_IDENTIFIER: AC5                                                 
 800 EVIDENCE_CODE: SOFTWARE                                              
 800 SITE_DESCRIPTION: BINDING SITE FOR RESIDUE PO4 C 302                 
 800                                                                      
 800 SITE_IDENTIFIER: AC6                                                 
 800 EVIDENCE_CODE: SOFTWARE                                              
 800 SITE_DESCRIPTION: BINDING SITE FOR RESIDUE CD8 D 301                 
 800                                                                      
 800 SITE_IDENTIFIER: AC7                                                 
 800 EVIDENCE_CODE: SOFTWARE                                              
 800 SITE_DESCRIPTION: BINDING SITE FOR RESIDUE PO4 D 302                 
 900                                                                      
 900 RELATED ENTRIES                                                      
 900 RELATED ID: 3VFH   RELATED DB: PDB                                   
 900 BLAC E166A CDC-1 ACYL-INTERMEDIATE COMPLEX                           
 900 RELATED ID: 4EBI   RELATED DB: PDB                                   
 900 BLAC TEBIPENEM ACYL-INTERMEDIATE COMPLEX                             
 900 RELATED ID: 4EBL   RELATED DB: PDB                                   
 900 BLAC E166A FAROPENEM ACYL-INTERMEDIATE COMPLEX                       
 900 RELATED ID: 4EBM   RELATED DB: PDB                                   
 900 BLAC BIAPENEM ACYL-INTERMEDIATE COMPLEX                              
 900 RELATED ID: 4EBN   RELATED DB: PDB                                   
 900 BLAC E166A AMOXICILLIN ACYL-INTERMEDIATE COMPLEX                     
 900 RELATED ID: 4EBO   RELATED DB: PDB                                   
 900 BLAC E166A CEFOPERAZONE ACYL-INTERMEDIATE COMPLEX                    
 900 RELATED ID: 4EBP   RELATED DB: PDB                                   
 900 BLAC E166A CEFOTAXIME ACYL-INTERMEDIATE COMPLEX                      
 900 RELATED ID: TB-RV2068C   RELATED DB: TARGETTRACK                     

>  <DBREF>
 3VFF A   29   293  UNP    P0C5C1   BLAC_MYCTU      43    307             
 3VFF B   29   293  UNP    P0C5C1   BLAC_MYCTU      43    307             
 3VFF C   29   293  UNP    P0C5C1   BLAC_MYCTU      43    307             
 3VFF D   29   293  UNP    P0C5C1   BLAC_MYCTU      43    307             

>  <SEQADV>
 3VFF MET A    9  UNP  P0C5C1              EXPRESSION TAG                 
 3VFF GLY A   10  UNP  P0C5C1              EXPRESSION TAG                 
 3VFF SER A   11  UNP  P0C5C1              EXPRESSION TAG                 
 3VFF SER A   12  UNP  P0C5C1              EXPRESSION TAG                 
 3VFF HIS A   13  UNP  P0C5C1              EXPRESSION TAG                 
 3VFF HIS A   14  UNP  P0C5C1              EXPRESSION TAG                 
 3VFF HIS A   15  UNP  P0C5C1              EXPRESSION TAG                 
 3VFF HIS A   16  UNP  P0C5C1              EXPRESSION TAG                 
 3VFF HIS A   17  UNP  P0C5C1              EXPRESSION TAG                 
 3VFF HIS A   18  UNP  P0C5C1              EXPRESSION TAG                 
 3VFF SER A   19  UNP  P0C5C1              EXPRESSION TAG                 
 3VFF SER A   20  UNP  P0C5C1              EXPRESSION TAG                 
 3VFF GLY A   21  UNP  P0C5C1              EXPRESSION TAG                 
 3VFF GLU A   22  UNP  P0C5C1              EXPRESSION TAG                 
 3VFF ASN A   23  UNP  P0C5C1              EXPRESSION TAG                 
 3VFF LEU A   24  UNP  P0C5C1              EXPRESSION TAG                 
 3VFF TYR A   25  UNP  P0C5C1              EXPRESSION TAG                 
 3VFF PHE A   26  UNP  P0C5C1              EXPRESSION TAG                 
 3VFF GLN A   27  UNP  P0C5C1              EXPRESSION TAG                 
 3VFF GLY A   28  UNP  P0C5C1              EXPRESSION TAG                 
 3VFF ALA A  166  UNP  P0C5C1    GLU   182 ENGINEERED MUTATION            
 3VFF MET B    9  UNP  P0C5C1              EXPRESSION TAG                 
 3VFF GLY B   10  UNP  P0C5C1              EXPRESSION TAG                 
 3VFF SER B   11  UNP  P0C5C1              EXPRESSION TAG                 
 3VFF SER B   12  UNP  P0C5C1              EXPRESSION TAG                 
 3VFF HIS B   13  UNP  P0C5C1              EXPRESSION TAG                 
 3VFF HIS B   14  UNP  P0C5C1              EXPRESSION TAG                 
 3VFF HIS B   15  UNP  P0C5C1              EXPRESSION TAG                 
 3VFF HIS B   16  UNP  P0C5C1              EXPRESSION TAG                 
 3VFF HIS B   17  UNP  P0C5C1              EXPRESSION TAG                 
 3VFF HIS B   18  UNP  P0C5C1              EXPRESSION TAG                 
 3VFF SER B   19  UNP  P0C5C1              EXPRESSION TAG                 
 3VFF SER B   20  UNP  P0C5C1              EXPRESSION TAG                 
 3VFF GLY B   21  UNP  P0C5C1              EXPRESSION TAG                 
 3VFF GLU B   22  UNP  P0C5C1              EXPRESSION TAG                 
 3VFF ASN B   23  UNP  P0C5C1              EXPRESSION TAG                 
 3VFF LEU B   24  UNP  P0C5C1              EXPRESSION TAG                 
 3VFF TYR B   25  UNP  P0C5C1              EXPRESSION TAG                 
 3VFF PHE B   26  UNP  P0C5C1              EXPRESSION TAG                 
 3VFF GLN B   27  UNP  P0C5C1              EXPRESSION TAG                 
 3VFF GLY B   28  UNP  P0C5C1              EXPRESSION TAG                 
 3VFF ALA B  166  UNP  P0C5C1    GLU   182 ENGINEERED MUTATION            
 3VFF MET C    9  UNP  P0C5C1              EXPRESSION TAG                 
 3VFF GLY C   10  UNP  P0C5C1              EXPRESSION TAG                 
 3VFF SER C   11  UNP  P0C5C1              EXPRESSION TAG                 
 3VFF SER C   12  UNP  P0C5C1              EXPRESSION TAG                 
 3VFF HIS C   13  UNP  P0C5C1              EXPRESSION TAG                 
 3VFF HIS C   14  UNP  P0C5C1              EXPRESSION TAG                 
 3VFF HIS C   15  UNP  P0C5C1              EXPRESSION TAG                 
 3VFF HIS C   16  UNP  P0C5C1              EXPRESSION TAG                 
 3VFF HIS C   17  UNP  P0C5C1              EXPRESSION TAG                 
 3VFF HIS C   18  UNP  P0C5C1              EXPRESSION TAG                 
 3VFF SER C   19  UNP  P0C5C1              EXPRESSION TAG                 
 3VFF SER C   20  UNP  P0C5C1              EXPRESSION TAG                 
 3VFF GLY C   21  UNP  P0C5C1              EXPRESSION TAG                 
 3VFF GLU C   22  UNP  P0C5C1              EXPRESSION TAG                 
 3VFF ASN C   23  UNP  P0C5C1              EXPRESSION TAG                 
 3VFF LEU C   24  UNP  P0C5C1              EXPRESSION TAG                 
 3VFF TYR C   25  UNP  P0C5C1              EXPRESSION TAG                 
 3VFF PHE C   26  UNP  P0C5C1              EXPRESSION TAG                 
 3VFF GLN C   27  UNP  P0C5C1              EXPRESSION TAG                 
 3VFF GLY C   28  UNP  P0C5C1              EXPRESSION TAG                 
 3VFF ALA C  166  UNP  P0C5C1    GLU   182 ENGINEERED MUTATION            
 3VFF MET D    9  UNP  P0C5C1              EXPRESSION TAG                 
 3VFF GLY D   10  UNP  P0C5C1              EXPRESSION TAG                 
 3VFF SER D   11  UNP  P0C5C1              EXPRESSION TAG                 
 3VFF SER D   12  UNP  P0C5C1              EXPRESSION TAG                 
 3VFF HIS D   13  UNP  P0C5C1              EXPRESSION TAG                 
 3VFF HIS D   14  UNP  P0C5C1              EXPRESSION TAG                 
 3VFF HIS D   15  UNP  P0C5C1              EXPRESSION TAG                 
 3VFF HIS D   16  UNP  P0C5C1              EXPRESSION TAG                 
 3VFF HIS D   17  UNP  P0C5C1              EXPRESSION TAG                 
 3VFF HIS D   18  UNP  P0C5C1              EXPRESSION TAG                 
 3VFF SER D   19  UNP  P0C5C1              EXPRESSION TAG                 
 3VFF SER D   20  UNP  P0C5C1              EXPRESSION TAG                 
 3VFF GLY D   21  UNP  P0C5C1              EXPRESSION TAG                 
 3VFF GLU D   22  UNP  P0C5C1              EXPRESSION TAG                 
 3VFF ASN D   23  UNP  P0C5C1              EXPRESSION TAG                 
 3VFF LEU D   24  UNP  P0C5C1              EXPRESSION TAG                 
 3VFF TYR D   25  UNP  P0C5C1              EXPRESSION TAG                 
 3VFF PHE D   26  UNP  P0C5C1              EXPRESSION TAG                 
 3VFF GLN D   27  UNP  P0C5C1              EXPRESSION TAG                 
 3VFF GLY D   28  UNP  P0C5C1              EXPRESSION TAG                 
 3VFF ALA D  166  UNP  P0C5C1    GLU   182 ENGINEERED MUTATION            

>  <SEQRES>
   1 A  285  MET GLY SER SER HIS HIS HIS HIS HIS HIS SER SER GLY          
   2 A  285  GLU ASN LEU TYR PHE GLN GLY ASP LEU ALA ASP ARG PHE          
   3 A  285  ALA GLU LEU GLU ARG ARG TYR ASP ALA ARG LEU GLY VAL          
   4 A  285  TYR VAL PRO ALA THR GLY THR THR ALA ALA ILE GLU TYR          
   5 A  285  ARG ALA ASP GLU ARG PHE ALA PHE CYS SER THR PHE LYS          
   6 A  285  ALA PRO LEU VAL ALA ALA VAL LEU HIS GLN ASN PRO LEU          
   7 A  285  THR HIS LEU ASP LYS LEU ILE THR TYR THR SER ASP ASP          
   8 A  285  ILE ARG SER ILE SER PRO VAL ALA GLN GLN HIS VAL GLN          
   9 A  285  THR GLY MET THR ILE GLY GLN LEU CYS ASP ALA ALA ILE          
  10 A  285  ARG TYR SER ASP GLY THR ALA ALA ASN LEU LEU LEU ALA          
  11 A  285  ASP LEU GLY GLY PRO GLY GLY GLY THR ALA ALA PHE THR          
  12 A  285  GLY TYR LEU ARG SER LEU GLY ASP THR VAL SER ARG LEU          
  13 A  285  ASP ALA GLU ALA PRO GLU LEU ASN ARG ASP PRO PRO GLY          
  14 A  285  ASP GLU ARG ASP THR THR THR PRO HIS ALA ILE ALA LEU          
  15 A  285  VAL LEU GLN GLN LEU VAL LEU GLY ASN ALA LEU PRO PRO          
  16 A  285  ASP LYS ARG ALA LEU LEU THR ASP TRP MET ALA ARG ASN          
  17 A  285  THR THR GLY ALA LYS ARG ILE ARG ALA GLY PHE PRO ALA          
  18 A  285  ASP TRP LYS VAL ILE ASP LYS THR GLY THR GLY ASP TYR          
  19 A  285  GLY ARG ALA ASN ASP ILE ALA VAL VAL TRP SER PRO THR          
  20 A  285  GLY VAL PRO TYR VAL VAL ALA VAL MET SER ASP ARG ALA          
  21 A  285  GLY GLY GLY TYR ASP ALA GLU PRO ARG GLU ALA LEU LEU          
  22 A  285  ALA GLU ALA ALA THR CYS VAL ALA GLY VAL LEU ALA              
   1 B  285  MET GLY SER SER HIS HIS HIS HIS HIS HIS SER SER GLY          
   2 B  285  GLU ASN LEU TYR PHE GLN GLY ASP LEU ALA ASP ARG PHE          
   3 B  285  ALA GLU LEU GLU ARG ARG TYR ASP ALA ARG LEU GLY VAL          
   4 B  285  TYR VAL PRO ALA THR GLY THR THR ALA ALA ILE GLU TYR          
   5 B  285  ARG ALA ASP GLU ARG PHE ALA PHE CYS SER THR PHE LYS          
   6 B  285  ALA PRO LEU VAL ALA ALA VAL LEU HIS GLN ASN PRO LEU          
   7 B  285  THR HIS LEU ASP LYS LEU ILE THR TYR THR SER ASP ASP          
   8 B  285  ILE ARG SER ILE SER PRO VAL ALA GLN GLN HIS VAL GLN          
   9 B  285  THR GLY MET THR ILE GLY GLN LEU CYS ASP ALA ALA ILE          
  10 B  285  ARG TYR SER ASP GLY THR ALA ALA ASN LEU LEU LEU ALA          
  11 B  285  ASP LEU GLY GLY PRO GLY GLY GLY THR ALA ALA PHE THR          
  12 B  285  GLY TYR LEU ARG SER LEU GLY ASP THR VAL SER ARG LEU          
  13 B  285  ASP ALA GLU ALA PRO GLU LEU ASN ARG ASP PRO PRO GLY          
  14 B  285  ASP GLU ARG ASP THR THR THR PRO HIS ALA ILE ALA LEU          
  15 B  285  VAL LEU GLN GLN LEU VAL LEU GLY ASN ALA LEU PRO PRO          
  16 B  285  ASP LYS ARG ALA LEU LEU THR ASP TRP MET ALA ARG ASN          
  17 B  285  THR THR GLY ALA LYS ARG ILE ARG ALA GLY PHE PRO ALA          
  18 B  285  ASP TRP LYS VAL ILE ASP LYS THR GLY THR GLY ASP TYR          
  19 B  285  GLY ARG ALA ASN ASP ILE ALA VAL VAL TRP SER PRO THR          
  20 B  285  GLY VAL PRO TYR VAL VAL ALA VAL MET SER ASP ARG ALA          
  21 B  285  GLY GLY GLY TYR ASP ALA GLU PRO ARG GLU ALA LEU LEU          
  22 B  285  ALA GLU ALA ALA THR CYS VAL ALA GLY VAL LEU ALA              
   1 C  285  MET GLY SER SER HIS HIS HIS HIS HIS HIS SER SER GLY          
   2 C  285  GLU ASN LEU TYR PHE GLN GLY ASP LEU ALA ASP ARG PHE          
   3 C  285  ALA GLU LEU GLU ARG ARG TYR ASP ALA ARG LEU GLY VAL          
   4 C  285  TYR VAL PRO ALA THR GLY THR THR ALA ALA ILE GLU TYR          
   5 C  285  ARG ALA ASP GLU ARG PHE ALA PHE CYS SER THR PHE LYS          
   6 C  285  ALA PRO LEU VAL ALA ALA VAL LEU HIS GLN ASN PRO LEU          
   7 C  285  THR HIS LEU ASP LYS LEU ILE THR TYR THR SER ASP ASP          
   8 C  285  ILE ARG SER ILE SER PRO VAL ALA GLN GLN HIS VAL GLN          
   9 C  285  THR GLY MET THR ILE GLY GLN LEU CYS ASP ALA ALA ILE          
  10 C  285  ARG TYR SER ASP GLY THR ALA ALA ASN LEU LEU LEU ALA          
  11 C  285  ASP LEU GLY GLY PRO GLY GLY GLY THR ALA ALA PHE THR          
  12 C  285  GLY TYR LEU ARG SER LEU GLY ASP THR VAL SER ARG LEU          
  13 C  285  ASP ALA GLU ALA PRO GLU LEU ASN ARG ASP PRO PRO GLY          
  14 C  285  ASP GLU ARG ASP THR THR THR PRO HIS ALA ILE ALA LEU          
  15 C  285  VAL LEU GLN GLN LEU VAL LEU GLY ASN ALA LEU PRO PRO          
  16 C  285  ASP LYS ARG ALA LEU LEU THR ASP TRP MET ALA ARG ASN          
  17 C  285  THR THR GLY ALA LYS ARG ILE ARG ALA GLY PHE PRO ALA          
  18 C  285  ASP TRP LYS VAL ILE ASP LYS THR GLY THR GLY ASP TYR          
  19 C  285  GLY ARG ALA ASN ASP ILE ALA VAL VAL TRP SER PRO THR          
  20 C  285  GLY VAL PRO TYR VAL VAL ALA VAL MET SER ASP ARG ALA          
  21 C  285  GLY GLY GLY TYR ASP ALA GLU PRO ARG GLU ALA LEU LEU          
  22 C  285  ALA GLU ALA ALA THR CYS VAL ALA GLY VAL LEU ALA              
   1 D  285  MET GLY SER SER HIS HIS HIS HIS HIS HIS SER SER GLY          
   2 D  285  GLU ASN LEU TYR PHE GLN GLY ASP LEU ALA ASP ARG PHE          
   3 D  285  ALA GLU LEU GLU ARG ARG TYR ASP ALA ARG LEU GLY VAL          
   4 D  285  TYR VAL PRO ALA THR GLY THR THR ALA ALA ILE GLU TYR          
   5 D  285  ARG ALA ASP GLU ARG PHE ALA PHE CYS SER THR PHE LYS          
   6 D  285  ALA PRO LEU VAL ALA ALA VAL LEU HIS GLN ASN PRO LEU          
   7 D  285  THR HIS LEU ASP LYS LEU ILE THR TYR THR SER ASP ASP          
   8 D  285  ILE ARG SER ILE SER PRO VAL ALA GLN GLN HIS VAL GLN          
   9 D  285  THR GLY MET THR ILE GLY GLN LEU CYS ASP ALA ALA ILE          
  10 D  285  ARG TYR SER ASP GLY THR ALA ALA ASN LEU LEU LEU ALA          
  11 D  285  ASP LEU GLY GLY PRO GLY GLY GLY THR ALA ALA PHE THR          
  12 D  285  GLY TYR LEU ARG SER LEU GLY ASP THR VAL SER ARG LEU          
  13 D  285  ASP ALA GLU ALA PRO GLU LEU ASN ARG ASP PRO PRO GLY          
  14 D  285  ASP GLU ARG ASP THR THR THR PRO HIS ALA ILE ALA LEU          
  15 D  285  VAL LEU GLN GLN LEU VAL LEU GLY ASN ALA LEU PRO PRO          
  16 D  285  ASP LYS ARG ALA LEU LEU THR ASP TRP MET ALA ARG ASN          
  17 D  285  THR THR GLY ALA LYS ARG ILE ARG ALA GLY PHE PRO ALA          
  18 D  285  ASP TRP LYS VAL ILE ASP LYS THR GLY THR GLY ASP TYR          
  19 D  285  GLY ARG ALA ASN ASP ILE ALA VAL VAL TRP SER PRO THR          
  20 D  285  GLY VAL PRO TYR VAL VAL ALA VAL MET SER ASP ARG ALA          
  21 D  285  GLY GLY GLY TYR ASP ALA GLU PRO ARG GLU ALA LEU LEU          
  22 D  285  ALA GLU ALA ALA THR CYS VAL ALA GLY VAL LEU ALA              

>  <HET>
 CD8  A 301      24                                                       
 CD8  B 301      24                                                       
 PO4  B 302       5                                                       
 CD8  C 301      24                                                       
 PO4  C 302       5                                                       
 CD8  D 301      24                                                       
 PO4  D 302       5                                                       

>  <HETNAM>
     CD8 (2R)-2-[(1S)-1-(BENZOYLAMINO)-1-METHOXY-2-OXOETHYL]-5-           
   2 CD8  METHYLIDENE-5,6-DIHYDRO-2H-1,3-THIAZINE-4-CARBOXYLIC            
   3 CD8  ACID                                                            
     PO4 PHOSPHATE ION                                                    

>  <FORMUL>
   5  CD8    4(C16 H16 N2 O5 S)                                           
   7  PO4    3(O4 P 3-)                                                   
  12  HOH   *13(H2 O)                                                     

>  <HELIX>
   1   1 ASP A   29  TYR A   41  1                                  13    
   2   2 CYS A   69  THR A   71  5                                   3    
   3   3 PHE A   72  ASN A   86  1                                  13    
   4   4 PRO A   87  ASP A   92  5                                   6    
   5   5 VAL A  108  HIS A  112  5                                   5    
   6   6 ILE A  119  TYR A  129  1                                  11    
   7   7 ASP A  131  ASP A  141  1                                  11    
   8   8 PRO A  145  GLY A  145B 5                                   3    
   9   9 GLY A  145C SER A  154  1                                  11    
  10  10 THR A  182  LEU A  195  1                                  14    
  11  11 PRO A  200  ARG A  213  1                                  14    
  12  12 ARG A  220  GLY A  224  5                                   5    
  13  13 ARG A  267  GLY A  271  5                                   5    
  14  14 ARG A  277  ALA A  293  1                                  17    
  15  15 LEU B   30  TYR B   41  1                                  12    
  16  16 CYS B   69  THR B   71  5                                   3    
  17  17 PHE B   72  GLN B   83  1                                  12    
  18  18 PRO B   87  ASP B   92  5                                   6    
  19  19 THR B   98  ILE B  102  5                                   5    
  20  20 VAL B  108  VAL B  113  5                                   6    
  21  21 ILE B  119  TYR B  129  1                                  11    
  22  22 ASP B  131  ASP B  141  1                                  11    
  23  23 LEU B  142  GLY B  143  5                                   2    
  24  24 GLY B  144  GLY B  145B 5                                   4    
  25  25 GLY B  145C LEU B  155  1                                  12    
  26  26 THR B  182  LEU B  195  1                                  14    
  27  27 PRO B  200  ARG B  213  1                                  14    
  28  28 ARG B  220  PHE B  225  1                                   6    
  29  29 ARG B  267  GLY B  271  5                                   5    
  30  30 ARG B  277  ALA B  293  1                                  17    
  31  31 LEU C   30  ASP C   42  1                                  13    
  32  32 CYS C   69  THR C   71  5                                   3    
  33  33 PHE C   72  ASN C   86  1                                  13    
  34  34 PRO C   87  ASP C   92  5                                   6    
  35  35 THR C   98  ILE C  102  5                                   5    
  36  36 SER C  106  GLN C  111  1                                   6    
  37  37 ILE C  119  SER C  130  1                                  12    
  38  38 ASP C  131  GLY C  143  1                                  13    
  39  39 GLY C  144  GLY C  145B 5                                   4    
  40  40 GLY C  145C LEU C  155  1                                  12    
  41  41 THR C  182  LEU C  195  1                                  14    
  42  42 PRO C  200  ARG C  213  1                                  14    
  43  43 ARG C  267  GLY C  271  5                                   5    
  44  44 ARG C  277  ALA C  293  1                                  17    
  45  45 LEU D   30  ARG D   40  1                                  11    
  46  46 CYS D   69  THR D   71  5                                   3    
  47  47 PHE D   72  ASN D   86  1                                  13    
  48  48 PRO D   87  ASP D   92  5                                   6    
  49  49 THR D   98  ILE D  102  5                                   5    
  50  50 VAL D  108  HIS D  112  5                                   5    
  51  51 ILE D  119  TYR D  129  1                                  11    
  52  52 ASP D  131  ASP D  141  1                                  11    
  53  53 GLY D  144  GLY D  145B 5                                   4    
  54  54 GLY D  145C SER D  154  1                                  11    
  55  55 GLU D  168  ASP D  172  5                                   5    
  56  56 THR D  182  LEU D  195  1                                  14    
  57  57 PRO D  200  ARG D  213  1                                  14    
  58  58 ARG D  220  PHE D  225  1                                   6    
  59  59 ARG D  267  ALA D  274  5                                   8    
  60  60 ARG D  277  ALA D  293  1                                  17    

>  <SHEET>
   1   A 5 ILE A  58  TYR A  60  0                                        
   2   A 5 ARG A  44  VAL A  49 -1  N  VAL A  47   O  TYR A  60           
   3   A 5 PRO A 258  ASP A 266 -1  O  ASP A 266   N  ARG A  44           
   4   A 5 ARG A 243  TRP A 251 -1  N  ALA A 248   O  VAL A 261           
   5   A 5 LYS A 230  GLY A 238 -1  N  GLY A 236   O  ASN A 245           
   1   B 2 PHE A  66  ALA A  67  0                                        
   2   B 2 THR A 180  THR A 181 -1  O  THR A 181   N  PHE A  66           
   1   C 2 LEU A  94  ILE A  95  0                                        
   2   C 2 MET A 117  THR A 118 -1  O  MET A 117   N  ILE A  95           
   1   D 5 ILE B  58  TYR B  60  0                                        
   2   D 5 ARG B  44  VAL B  49 -1  N  VAL B  47   O  TYR B  60           
   3   D 5 PRO B 258  ASP B 266 -1  O  MET B 264   N  GLY B  46           
   4   D 5 ALA B 244  TRP B 251 -1  N  VAL B 250   O  TYR B 259           
   5   D 5 LYS B 230  THR B 237 -1  N  GLY B 236   O  ASN B 245           
   1   E 2 PHE B  66  ALA B  67  0                                        
   2   E 2 THR B 180  THR B 181 -1  O  THR B 181   N  PHE B  66           
   1   F 2 LEU B  94  ILE B  95  0                                        
   2   F 2 MET B 117  THR B 118 -1  O  MET B 117   N  ILE B  95           
   1   G 5 ILE C  58  TYR C  60  0                                        
   2   G 5 ARG C  44  VAL C  49 -1  N  VAL C  47   O  TYR C  60           
   3   G 5 PRO C 258  ASP C 266 -1  O  ASP C 266   N  ARG C  44           
   4   G 5 ARG C 243  TRP C 251 -1  N  VAL C 250   O  TYR C 259           
   5   G 5 LYS C 230  GLY C 238 -1  N  LYS C 230   O  TRP C 251           
   1   H 2 PHE C  66  ALA C  67  0                                        
   2   H 2 THR C 180  THR C 181 -1  O  THR C 181   N  PHE C  66           
   1   I 2 LEU C  94  ILE C  95  0                                        
   2   I 2 MET C 117  THR C 118 -1  O  MET C 117   N  ILE C  95           
   1   J 5 ILE D  58  TYR D  60  0                                        
   2   J 5 ARG D  44  VAL D  49 -1  N  VAL D  47   O  TYR D  60           
   3   J 5 PRO D 258  ASP D 266 -1  O  ASP D 266   N  ARG D  44           
   4   J 5 ARG D 243  TRP D 251 -1  N  ALA D 248   O  VAL D 261           
   5   J 5 LYS D 230  GLY D 238 -1  N  GLY D 236   O  ASN D 245           
   1   K 2 PHE D  66  ALA D  67  0                                        
   2   K 2 THR D 180  THR D 181 -1  O  THR D 181   N  PHE D  66           
   1   L 2 LEU D  94  ILE D  95  0                                        
   2   L 2 MET D 117  THR D 118 -1  O  MET D 117   N  ILE D  95           

>  <LINK>
       OG  SER A  70                 CBA CD8 A 301     1555   1555  1.35  
       OG  SER B  70                 CBA CD8 B 301     1555   1555  1.34  
       OG  SER C  70                 CBA CD8 C 301     1555   1555  1.35  
       OG  SER D  70                 CBA CD8 D 301     1555   1555  1.36  

>  <CISPEP>
   1 ALA A  166    PRO A  167          0         3.20                     
   2 ALA D  166    PRO D  167          0         2.64                     

>  <SITE>
   1 AC1  8 CYS A  69  SER A  70  LYS A  73  SER A 130                    
   2 AC1  8 THR A 216  LYS A 234  THR A 235  THR A 237                    
   1 AC2  7 CYS B  69  SER B  70  LYS B  73  SER B 130                    
   2 AC2  7 THR B 235  GLY B 236  THR B 237                               
   1 AC3  4 ASP B 124  ARG B 128  ARG B 213  HOH B 403                    
   1 AC4  6 CYS C  69  SER C  70  SER C 130  THR C 235                    
   2 AC4  6 GLY C 236  THR C 237                                          
   1 AC5  3 ASP C 124  ARG C 128  ARG C 213                               
   1 AC6  9 SER D  70  LYS D  73  SER D 130  THR D 216                    
   2 AC6  9 LYS D 234  THR D 235  GLY D 236  THR D 237                    
   3 AC6  9 GLY D 238                                                     
   1 AC7  2 ASP D 124  ARG D 128                                          

>  <ORIGX1>
      1.000000  0.000000  0.000000        0.00000                         

>  <ORIGX2>
      0.000000  1.000000  0.000000        0.00000                         

>  <ORIGX3>
      0.000000  0.000000  1.000000        0.00000                         

>  <SCALE1>
      0.012490  0.000000  0.003984        0.00000                         

>  <SCALE2>
      0.000000  0.010352  0.000000        0.00000                         

>  <SCALE3>
      0.000000  0.000000  0.009669        0.00000                         

>  <MASTER>
      571    0    7   60   36    0   12    6 7409    4  115   88          

$$$$
