start_structures/Ligand_Substrate/Ligand_Complex_Stripped/CED_1GHM.pdb
 OpenBabel08222315203D

 28 29  0  0  1  0  0  0  0  0999 V2000
    4.5680  -13.3810  -13.3030 N   0  0  0  0  0  0  0  0  0  0  0  0
    3.6660  -12.8900  -14.3460 C   0  0  2  0  0  0  0  0  0  0  0  0
    3.9200  -13.3510  -15.7530 C   0  0  0  0  0  0  0  0  0  0  0  0
    3.0980  -13.0870  -16.6200 O   0  0  0  0  0  0  0  0  0  0  0  0
    3.5760  -11.3840  -14.3760 C   0  0  0  0  0  0  0  0  0  0  0  0
    2.8080  -10.9570  -13.2250 O   0  0  0  0  0  0  0  0  0  0  0  0
    2.5790   -6.7200  -10.9940 S   0  0  0  0  0  0  0  0  0  0  0  0
    4.2860   -6.2910  -10.5870 C   0  0  0  0  0  0  0  0  0  0  0  0
    5.3260   -6.3400  -11.6650 C   0  0  1  0  0  0  0  0  0  0  0  0
    6.4980   -5.5480  -11.5110 C   0  0  0  0  0  0  0  0  0  0  0  0
    5.1130   -7.2520  -12.8720 C   0  0  0  0  0  0  0  0  0  0  0  0
    6.1550   -7.3700  -13.9920 C   0  0  0  0  0  0  0  0  0  0  0  0
    7.2400   -6.7450  -13.9740 O   0  0  0  0  0  0  0  0  0  0  0  0
    5.7950   -8.1340  -14.8830 O   0  0  0  0  0  0  0  0  0  0  0  0
    3.9820   -8.0210  -13.0390 N   0  0  0  0  0  0  0  0  0  0  0  0
    2.8480   -8.1230  -12.1300 C   0  0  1  0  0  0  0  0  0  0  0  0
    2.9390   -9.4790  -11.3500 C   0  0  1  0  0  0  0  0  0  0  0  0
    3.6400  -10.5130  -12.2480 C   0  0  0  0  0  0  0  0  0  0  0  0
    4.8290  -10.8380  -12.0460 O   0  0  0  0  0  0  0  0  0  0  0  0
    3.7810   -9.4480  -10.0920 N   0  0  0  0  0  0  0  0  0  0  0  0
    3.1560   -9.3880   -8.7920 C   0  0  0  0  0  0  0  0  0  0  0  0
    1.9210   -9.3470   -8.6340 O   0  0  0  0  0  0  0  0  0  0  0  0
    4.1110   -9.4090   -7.5980 C   0  0  0  0  0  0  0  0  0  0  0  0
    4.6540   -8.0380   -7.3450 C   0  0  0  0  0  0  0  0  0  0  0  0
    3.9000   -6.8050   -7.0520 C   0  0  0  0  0  0  0  0  0  0  0  0
    4.8650   -5.7710   -6.9710 C   0  0  0  0  0  0  0  0  0  0  0  0
    6.1740   -6.1090   -7.1290 C   0  0  0  0  0  0  0  0  0  0  0  0
    6.2950   -7.7850   -7.4140 S   0  0  0  0  0  0  0  0  0  0  0  0
  2  1  1  1  0  0  0
  3  2  1  0  0  0  0
  4  3  2  0  0  0  0
  5  2  1  0  0  0  0
  5  6  1  0  0  0  0
  6 18  1  0  0  0  0
  7  8  1  0  0  0  0
  7 16  1  0  0  0  0
  8  9  1  0  0  0  0
  9 10  1  1  0  0  0
  9 11  1  0  0  0  0
 11 12  1  0  0  0  0
 11 15  2  0  0  0  0
 12 13  2  0  0  0  0
 12 14  1  0  0  0  0
 15 16  1  0  0  0  0
 16 17  1  1  0  0  0
 17 18  1  6  0  0  0
 17 20  1  0  0  0  0
 18 19  2  0  0  0  0
 20 21  1  0  0  0  0
 21 22  2  0  0  0  0
 21 23  1  0  0  0  0
 23 24  1  0  0  0  0
 24 25  2  0  0  0  0
 24 28  1  0  0  0  0
 25 26  1  0  0  0  0
 26 27  2  0  0  0  0
 27 28  1  0  0  0  0
M  END
>  <HEADER>
    HYDROLASE                               19-DEC-00   1GHM              

>  <TITLE>
    STRUCTURES OF THE ACYL-ENZYME COMPLEX OF THE STAPHYLOCOCCUS AUREUS    
   2 BETA-LACTAMASE MUTANT GLU166ASP:ASN170GLN WITH DEGRADED CEPHALORIDINE

>  <COMPND>
    MOL_ID: 1;                                                            
   2 MOLECULE: BETA-LACTAMASE;                                            
   3 CHAIN: A;                                                            
   4 SYNONYM: PENICILLINASE;                                              
   5 EC: 3.5.2.6;                                                         
   6 ENGINEERED: YES;                                                     
   7 MUTATION: YES                                                        

>  <SOURCE>
    MOL_ID: 1;                                                            
   2 ORGANISM_SCIENTIFIC: STAPHYLOCOCCUS AUREUS;                          
   3 ORGANISM_TAXID: 1280;                                                
   4 STRAIN: PC1;                                                         
   5 GENE: BLAZ;                                                          
   6 EXPRESSION_SYSTEM: ESCHERICHIA COLI;                                 
   7 EXPRESSION_SYSTEM_TAXID: 562;                                        
   8 EXPRESSION_SYSTEM_STRAIN: TG1;                                       
   9 EXPRESSION_SYSTEM_PLASMID: PTS32;                                    
  10 EXPRESSION_SYSTEM_GENE: BLAZ                                         

>  <KEYWDS>
    HYDROLASE, ANTIBIOTIC RESISTANCE, BETA-LACTAM HYDROLYSIS,             
   2 BENZYLPENICILLIN, CEPHALORIDINE                                      

>  <EXPDTA>
    X-RAY DIFFRACTION                                                     

>  <AUTHOR>
    C.C.H.CHEN,O.HERZBERG                                                 

>  <REVDAT>
   6   09-AUG-23 1GHM    1       REMARK                                   
   5   27-OCT-21 1GHM    1       REMARK SEQADV LINK                       
   4   17-AUG-11 1GHM    1       HETSYN VERSN                             
   3   24-FEB-09 1GHM    1       VERSN                                    
   2   01-APR-03 1GHM    1       JRNL                                     
   1   04-APR-01 1GHM    0                                                

>  <JRNL>
      AUTH   C.C.CHEN,O.HERZBERG                                          
      TITL   STRUCTURES OF THE ACYL-ENZYME COMPLEXES OF THE               
      TITL 2 STAPHYLOCOCCUS AUREUS BETA-LACTAMASE MUTANT                  
      TITL 3 GLU166ASP:ASN170GLN WITH BENZYLPENICILLIN AND CEPHALORIDINE. 
      REF    BIOCHEMISTRY                  V.  40  2351 2001              
      REFN                   ISSN 0006-2960                               
      PMID   11327855                                                     
      DOI    10.1021/BI002277H                                            

>  <REMARK>
   1                                                                      
   1 REFERENCE 1                                                          
   1  AUTH   L.E.ZAWADZKE,T.J.SMITH,O.HERZBERG                            
   1  TITL   AN ENGINEERED STAPHYLOCOCCUS AUREUS PC1 BETA-LACTAMASE THAT  
   1  TITL 2 HYDROLYSES THIRD-GENERATION CEPHALOSPORINS                   
   1  REF    PROTEIN ENG.                  V.   8  1275 1995              
   1  REFN                   ISSN 0269-2139                               
   1 REFERENCE 2                                                          
   1  AUTH   O.HERZBERG                                                   
   1  TITL   REFINED CRYSTAL STRUCTURE OF BETA-LACTAMASE FROM             
   1  TITL 2 STAPHYLOCOCCUS AUREUS PC1 AT 2.0                             
   1  REF    J.MOL.BIOL.                   V. 217   701 1991              
   1  REFN                   ISSN 0022-2836                               
   1 REFERENCE 3                                                          
   1  AUTH   O.HERZBERG,J.MOULT                                           
   1  TITL   BACTERIAL RESISTANCE TO BETA-LACTAM ANTIBIOTICS. CRYSTAL     
   1  TITL 2 STRUCTURE OF BETA-LACTAMASE FROM STAPHYLOCOCCUS AUREUS PC1   
   1  TITL 3 AT 2.5 A RESOLUTION                                          
   1  REF    SCIENCE                       V. 236   694 1987              
   1  REFN                   ISSN 0036-8075                               
   2                                                                      
   2 RESOLUTION.    1.86 ANGSTROMS.                                       
   3                                                                      
   3 REFINEMENT.                                                          
   3   PROGRAM     : CNS 0.4                                              
   3   AUTHORS     : BRUNGER,ADAMS,CLORE,DELANO,GROS,GROSSE-              
   3               : KUNSTLEVE,JIANG,KUSZEWSKI,NILGES,PANNU,              
   3               : READ,RICE,SIMONSON,WARREN                            
   3                                                                      
   3  REFINEMENT TARGET : NULL                                            
   3                                                                      
   3  DATA USED IN REFINEMENT.                                            
   3   RESOLUTION RANGE HIGH (ANGSTROMS) : 1.86                           
   3   RESOLUTION RANGE LOW  (ANGSTROMS) : 21.80                          
   3   DATA CUTOFF            (SIGMA(F)) : 2.000                          
   3   DATA CUTOFF HIGH         (ABS(F)) : NULL                           
   3   DATA CUTOFF LOW          (ABS(F)) : NULL                           
   3   COMPLETENESS (WORKING+TEST)   (%) : 91.0                           
   3   NUMBER OF REFLECTIONS             : 24924                          
   3                                                                      
   3  FIT TO DATA USED IN REFINEMENT.                                     
   3   CROSS-VALIDATION METHOD          : THROUGHOUT                      
   3   FREE R VALUE TEST SET SELECTION  : RANDOM                          
   3   R VALUE            (WORKING SET) : 0.188                           
   3   FREE R VALUE                     : 0.241                           
   3   FREE R VALUE TEST SET SIZE   (%) : 10.000                          
   3   FREE R VALUE TEST SET COUNT      : 2512                            
   3   ESTIMATED ERROR OF FREE R VALUE  : 0.005                           
   3                                                                      
   3  FIT IN THE HIGHEST RESOLUTION BIN.                                  
   3   TOTAL NUMBER OF BINS USED           : NULL                         
   3   BIN RESOLUTION RANGE HIGH       (A) : NULL                         
   3   BIN RESOLUTION RANGE LOW        (A) : NULL                         
   3   BIN COMPLETENESS (WORKING+TEST) (%) : NULL                         
   3   REFLECTIONS IN BIN    (WORKING SET) : NULL                         
   3   BIN R VALUE           (WORKING SET) : NULL                         
   3   BIN FREE R VALUE                    : NULL                         
   3   BIN FREE R VALUE TEST SET SIZE  (%) : NULL                         
   3   BIN FREE R VALUE TEST SET COUNT     : NULL                         
   3   ESTIMATED ERROR OF BIN FREE R VALUE : NULL                         
   3                                                                      
   3  NUMBER OF NON-HYDROGEN ATOMS USED IN REFINEMENT.                    
   3   PROTEIN ATOMS            : 2029                                    
   3   NUCLEIC ACID ATOMS       : 0                                       
   3   HETEROGEN ATOMS          : 51                                      
   3   SOLVENT ATOMS            : 326                                     
   3                                                                      
   3  B VALUES.                                                           
   3   FROM WILSON PLOT           (A**2) : NULL                           
   3   MEAN B VALUE      (OVERALL, A**2) : NULL                           
   3   OVERALL ANISOTROPIC B VALUE.                                       
   3    B11 (A**2) : 0.29800                                              
   3    B22 (A**2) : 7.40200                                              
   3    B33 (A**2) : -3.75700                                             
   3    B12 (A**2) : 0.00000                                              
   3    B13 (A**2) : 0.00000                                              
   3    B23 (A**2) : 0.00000                                              
   3                                                                      
   3  ESTIMATED COORDINATE ERROR.                                         
   3   ESD FROM LUZZATI PLOT        (A) : NULL                            
   3   ESD FROM SIGMAA              (A) : NULL                            
   3   LOW RESOLUTION CUTOFF        (A) : NULL                            
   3                                                                      
   3  CROSS-VALIDATED ESTIMATED COORDINATE ERROR.                         
   3   ESD FROM C-V LUZZATI PLOT    (A) : NULL                            
   3   ESD FROM C-V SIGMAA          (A) : NULL                            
   3                                                                      
   3  RMS DEVIATIONS FROM IDEAL VALUES.                                   
   3   BOND LENGTHS                 (A) : 0.020                           
   3   BOND ANGLES            (DEGREES) : 1.900                           
   3   DIHEDRAL ANGLES        (DEGREES) : NULL                            
   3   IMPROPER ANGLES        (DEGREES) : NULL                            
   3                                                                      
   3  ISOTROPIC THERMAL MODEL : RESTRAINED                                
   3                                                                      
   3  ISOTROPIC THERMAL FACTOR RESTRAINTS.    RMS    SIGMA                
   3   MAIN-CHAIN BOND              (A**2) : NULL  ; NULL                 
   3   MAIN-CHAIN ANGLE             (A**2) : NULL  ; NULL                 
   3   SIDE-CHAIN BOND              (A**2) : NULL  ; NULL                 
   3   SIDE-CHAIN ANGLE             (A**2) : NULL  ; NULL                 
   3                                                                      
   3  BULK SOLVENT MODELING.                                              
   3   METHOD USED : NULL                                                 
   3   KSOL        : NULL                                                 
   3   BSOL        : NULL                                                 
   3                                                                      
   3  NCS MODEL : NULL                                                    
   3                                                                      
   3  NCS RESTRAINTS.                         RMS   SIGMA/WEIGHT          
   3   GROUP  1  POSITIONAL            (A) : NULL  ; NULL                 
   3   GROUP  1  B-FACTOR           (A**2) : NULL  ; NULL                 
   3                                                                      
   3  PARAMETER FILE  1  : NULL                                           
   3  TOPOLOGY FILE  1   : NULL                                           
   3                                                                      
   3  OTHER REFINEMENT REMARKS: NULL                                      
   4                                                                      
   4 1GHM COMPLIES WITH FORMAT V. 3.30, 13-JUL-11                         
 100                                                                      
 100 THIS ENTRY HAS BEEN PROCESSED BY RCSB ON 20-DEC-00.                  
 100 THE DEPOSITION ID IS D_1000001520.                                   
 200                                                                      
 200 EXPERIMENTAL DETAILS                                                 
 200  EXPERIMENT TYPE                : X-RAY DIFFRACTION                  
 200  DATE OF DATA COLLECTION        : 15-OCT-98                          
 200  TEMPERATURE           (KELVIN) : 100                                
 200  PH                             : 8.00                               
 200  NUMBER OF CRYSTALS USED        : 1                                  
 200                                                                      
 200  SYNCHROTRON              (Y/N) : Y                                  
 200  RADIATION SOURCE               : NSLS                               
 200  BEAMLINE                       : X12C                               
 200  X-RAY GENERATOR MODEL          : NULL                               
 200  MONOCHROMATIC OR LAUE    (M/L) : M                                  
 200  WAVELENGTH OR RANGE        (A) : 1.0                                
 200  MONOCHROMATOR                  : SILICON CRYSTAL                    
 200  OPTICS                         : MIRROR                             
 200                                                                      
 200  DETECTOR TYPE                  : CCD                                
 200  DETECTOR MANUFACTURER          : BRANDEIS - B4                      
 200  INTENSITY-INTEGRATION SOFTWARE : DENZO                              
 200  DATA SCALING SOFTWARE          : SCALEPACK                          
 200                                                                      
 200  NUMBER OF UNIQUE REFLECTIONS   : 31672                              
 200  RESOLUTION RANGE HIGH      (A) : 1.800                              
 200  RESOLUTION RANGE LOW       (A) : 21.800                             
 200  REJECTION CRITERIA  (SIGMA(I)) : 0.000                              
 200                                                                      
 200 OVERALL.                                                             
 200  COMPLETENESS FOR RANGE     (%) : 98.4                               
 200  DATA REDUNDANCY                : 3.100                              
 200  R MERGE                    (I) : 0.04500                            
 200  R SYM                      (I) : NULL                               
 200  <I/SIGMA(I)> FOR THE DATA SET  : 16.7000                            
 200                                                                      
 200 IN THE HIGHEST RESOLUTION SHELL.                                     
 200  HIGHEST RESOLUTION SHELL, RANGE HIGH (A) : 1.80                     
 200  HIGHEST RESOLUTION SHELL, RANGE LOW  (A) : 1.86                     
 200  COMPLETENESS FOR SHELL     (%) : 96.9                               
 200  DATA REDUNDANCY IN SHELL       : 2.90                               
 200  R MERGE FOR SHELL          (I) : 0.41300                            
 200  R SYM FOR SHELL            (I) : NULL                               
 200  <I/SIGMA(I)> FOR SHELL         : 1.600                              
 200                                                                      
 200 DIFFRACTION PROTOCOL: SINGLE WAVELENGTH                              
 200 METHOD USED TO DETERMINE THE STRUCTURE: NULL                         
 200 SOFTWARE USED: NULL                                                  
 200 STARTING MODEL: 1DJC                                                 
 200                                                                      
 200 REMARK: NULL                                                         
 280                                                                      
 280 CRYSTAL                                                              
 280 SOLVENT CONTENT, VS   (%): 65.00                                     
 280 MATTHEWS COEFFICIENT, VM (ANGSTROMS**3/DA): 2.94                     
 280                                                                      
 280 CRYSTALLIZATION CONDITIONS: PH 8.00                                  
 290                                                                      
 290 CRYSTALLOGRAPHIC SYMMETRY                                            
 290 SYMMETRY OPERATORS FOR SPACE GROUP: I 2 2 2                          
 290                                                                      
 290      SYMOP   SYMMETRY                                                
 290     NNNMMM   OPERATOR                                                
 290       1555   X,Y,Z                                                   
 290       2555   -X,-Y,Z                                                 
 290       3555   -X,Y,-Z                                                 
 290       4555   X,-Y,-Z                                                 
 290       5555   X+1/2,Y+1/2,Z+1/2                                       
 290       6555   -X+1/2,-Y+1/2,Z+1/2                                     
 290       7555   -X+1/2,Y+1/2,-Z+1/2                                     
 290       8555   X+1/2,-Y+1/2,-Z+1/2                                     
 290                                                                      
 290     WHERE NNN -> OPERATOR NUMBER                                     
 290           MMM -> TRANSLATION VECTOR                                  
 290                                                                      
 290 CRYSTALLOGRAPHIC SYMMETRY TRANSFORMATIONS                            
 290 THE FOLLOWING TRANSFORMATIONS OPERATE ON THE ATOM/HETATM             
 290 RECORDS IN THIS ENTRY TO PRODUCE CRYSTALLOGRAPHICALLY                
 290 RELATED MOLECULES.                                                   
 290   SMTRY1   1  1.000000  0.000000  0.000000        0.00000            
 290   SMTRY2   1  0.000000  1.000000  0.000000        0.00000            
 290   SMTRY3   1  0.000000  0.000000  1.000000        0.00000            
 290   SMTRY1   2 -1.000000  0.000000  0.000000        0.00000            
 290   SMTRY2   2  0.000000 -1.000000  0.000000        0.00000            
 290   SMTRY3   2  0.000000  0.000000  1.000000        0.00000            
 290   SMTRY1   3 -1.000000  0.000000  0.000000        0.00000            
 290   SMTRY2   3  0.000000  1.000000  0.000000        0.00000            
 290   SMTRY3   3  0.000000  0.000000 -1.000000        0.00000            
 290   SMTRY1   4  1.000000  0.000000  0.000000        0.00000            
 290   SMTRY2   4  0.000000 -1.000000  0.000000        0.00000            
 290   SMTRY3   4  0.000000  0.000000 -1.000000        0.00000            
 290   SMTRY1   5  1.000000  0.000000  0.000000       26.75000            
 290   SMTRY2   5  0.000000  1.000000  0.000000       45.40000            
 290   SMTRY3   5  0.000000  0.000000  1.000000       70.10000            
 290   SMTRY1   6 -1.000000  0.000000  0.000000       26.75000            
 290   SMTRY2   6  0.000000 -1.000000  0.000000       45.40000            
 290   SMTRY3   6  0.000000  0.000000  1.000000       70.10000            
 290   SMTRY1   7 -1.000000  0.000000  0.000000       26.75000            
 290   SMTRY2   7  0.000000  1.000000  0.000000       45.40000            
 290   SMTRY3   7  0.000000  0.000000 -1.000000       70.10000            
 290   SMTRY1   8  1.000000  0.000000  0.000000       26.75000            
 290   SMTRY2   8  0.000000 -1.000000  0.000000       45.40000            
 290   SMTRY3   8  0.000000  0.000000 -1.000000       70.10000            
 290                                                                      
 290 REMARK: NULL                                                         
 300                                                                      
 300 BIOMOLECULE: 1                                                       
 300 SEE REMARK 350 FOR THE AUTHOR PROVIDED AND/OR PROGRAM                
 300 GENERATED ASSEMBLY INFORMATION FOR THE STRUCTURE IN                  
 300 THIS ENTRY. THE REMARK MAY ALSO PROVIDE INFORMATION ON               
 300 BURIED SURFACE AREA.                                                 
 350                                                                      
 350 COORDINATES FOR A COMPLETE MULTIMER REPRESENTING THE KNOWN           
 350 BIOLOGICALLY SIGNIFICANT OLIGOMERIZATION STATE OF THE                
 350 MOLECULE CAN BE GENERATED BY APPLYING BIOMT TRANSFORMATIONS          
 350 GIVEN BELOW.  BOTH NON-CRYSTALLOGRAPHIC AND                          
 350 CRYSTALLOGRAPHIC OPERATIONS ARE GIVEN.                               
 350                                                                      
 350 BIOMOLECULE: 1                                                       
 350 AUTHOR DETERMINED BIOLOGICAL UNIT: MONOMERIC                         
 350 APPLY THE FOLLOWING TO CHAINS: A                                     
 350   BIOMT1   1  1.000000  0.000000  0.000000        0.00000            
 350   BIOMT2   1  0.000000  1.000000  0.000000        0.00000            
 350   BIOMT3   1  0.000000  0.000000  1.000000        0.00000            
 375                                                                      
 375 SPECIAL POSITION                                                     
 375 THE FOLLOWING ATOMS ARE FOUND TO BE WITHIN 0.15 ANGSTROMS            
 375 OF A SYMMETRY RELATED ATOM AND ARE ASSUMED TO BE ON SPECIAL          
 375 POSITIONS.                                                           
 375                                                                      
 375 ATOM RES CSSEQI                                                      
 375      HOH A 334  LIES ON A SPECIAL POSITION.                          
 375      HOH A 394  LIES ON A SPECIAL POSITION.                          
 375      HOH A 454  LIES ON A SPECIAL POSITION.                          
 375      HOH A 545  LIES ON A SPECIAL POSITION.                          
 375      HOH A 564  LIES ON A SPECIAL POSITION.                          
 375      HOH A 615  LIES ON A SPECIAL POSITION.                          
 465                                                                      
 465 MISSING RESIDUES                                                     
 465 THE FOLLOWING RESIDUES WERE NOT LOCATED IN THE                       
 465 EXPERIMENT. (M=MODEL NUMBER; RES=RESIDUE NAME; C=CHAIN               
 465 IDENTIFIER; SSSEQ=SEQUENCE NUMBER; I=INSERTION CODE.)                
 465                                                                      
 465   M RES C SSSEQI                                                     
 465     MET A    30                                                      
 500                                                                      
 500 GEOMETRY AND STEREOCHEMISTRY                                         
 500 SUBTOPIC: CLOSE CONTACTS                                             
 500                                                                      
 500 THE FOLLOWING ATOMS THAT ARE RELATED BY CRYSTALLOGRAPHIC             
 500 SYMMETRY ARE IN CLOSE CONTACT.  AN ATOM LOCATED WITHIN 0.15          
 500 ANGSTROMS OF A SYMMETRY RELATED ATOM IS ASSUMED TO BE ON A           
 500 SPECIAL POSITION AND IS, THEREFORE, LISTED IN REMARK 375             
 500 INSTEAD OF REMARK 500.  ATOMS WITH NON-BLANK ALTERNATE               
 500 LOCATION INDICATORS ARE NOT INCLUDED IN THE CALCULATIONS.            
 500                                                                      
 500 DISTANCE CUTOFF:                                                     
 500 2.2 ANGSTROMS FOR CONTACTS NOT INVOLVING HYDROGEN ATOMS              
 500 1.6 ANGSTROMS FOR CONTACTS INVOLVING HYDROGEN ATOMS                  
 500                                                                      
 500  ATM1  RES C  SSEQI   ATM2  RES C  SSEQI  SSYMOP   DISTANCE          
 500   O    HOH A   506     O    HOH A   506     2555     2.07            
 500                                                                      
 500 REMARK: NULL                                                         
 500                                                                      
 500 GEOMETRY AND STEREOCHEMISTRY                                         
 500 SUBTOPIC: TORSION ANGLES                                             
 500                                                                      
 500 TORSION ANGLES OUTSIDE THE EXPECTED RAMACHANDRAN REGIONS:            
 500 (M=MODEL NUMBER; RES=RESIDUE NAME; C=CHAIN IDENTIFIER;               
 500 SSEQ=SEQUENCE NUMBER; I=INSERTION CODE).                             
 500                                                                      
 500 STANDARD TABLE:                                                      
 500 FORMAT:(10X,I3,1X,A3,1X,A1,I4,A1,4X,F7.2,3X,F7.2)                    
 500                                                                      
 500 EXPECTED VALUES: GJ KLEYWEGT AND TA JONES (1996). PHI/PSI-           
 500 CHOLOGY: RAMACHANDRAN REVISITED. STRUCTURE 4, 1395 - 1400            
 500                                                                      
 500  M RES CSSEQI        PSI       PHI                                   
 500    ALA A  69     -136.87     49.07                                   
 500    ASN A 196       70.49   -119.69                                   
 500    LEU A 220     -127.12   -106.19                                   
 500    LYS A 227       -7.47    -59.00                                   
 500                                                                      
 500 REMARK: NULL                                                         
 800                                                                      
 800 SITE                                                                 
 800 SITE_IDENTIFIER: AC1                                                 
 800 EVIDENCE_CODE: SOFTWARE                                              
 800 SITE_DESCRIPTION: BINDING SITE FOR RESIDUE SO4 A 2                   
 800                                                                      
 800 SITE_IDENTIFIER: AC2                                                 
 800 EVIDENCE_CODE: SOFTWARE                                              
 800 SITE_DESCRIPTION: BINDING SITE FOR RESIDUE SO4 A 3                   
 800                                                                      
 800 SITE_IDENTIFIER: AC3                                                 
 800 EVIDENCE_CODE: SOFTWARE                                              
 800 SITE_DESCRIPTION: BINDING SITE FOR RESIDUE SO4 A 4                   
 800                                                                      
 800 SITE_IDENTIFIER: AC4                                                 
 800 EVIDENCE_CODE: SOFTWARE                                              
 800 SITE_DESCRIPTION: BINDING SITE FOR RESIDUE SO4 A 5                   
 800                                                                      
 800 SITE_IDENTIFIER: AC5                                                 
 800 EVIDENCE_CODE: SOFTWARE                                              
 800 SITE_DESCRIPTION: BINDING SITE FOR RESIDUE SO4 A 6                   
 800                                                                      
 800 SITE_IDENTIFIER: AC6                                                 
 800 EVIDENCE_CODE: SOFTWARE                                              
 800 SITE_DESCRIPTION: BINDING SITE FOR RESIDUE CO3 A 7                   
 800                                                                      
 800 SITE_IDENTIFIER: AC7                                                 
 800 EVIDENCE_CODE: SOFTWARE                                              
 800 SITE_DESCRIPTION: BINDING SITE FOR RESIDUE CED A 1                   

>  <DBREF>
 1GHM A   31   290  UNP    P00807   BLAC_STAAU      25    281             

>  <SEQADV>
 1GHM MET A   30  UNP  P00807              SEE REMARK 999                 
 1GHM ASP A  166  UNP  P00807    GLU   157 ENGINEERED MUTATION            
 1GHM GLN A  170  UNP  P00807    ASN   161 ENGINEERED MUTATION            

>  <SEQRES>
   1 A  258  MET LYS GLU LEU ASN ASP LEU GLU LYS LYS TYR ASN ALA          
   2 A  258  HIS ILE GLY VAL TYR ALA LEU ASP THR LYS SER GLY LYS          
   3 A  258  GLU VAL LYS PHE ASN SER ASP LYS ARG PHE ALA TYR ALA          
   4 A  258  SER THR SER LYS ALA ILE ASN SER ALA ILE LEU LEU GLU          
   5 A  258  GLN VAL PRO TYR ASN LYS LEU ASN LYS LYS VAL HIS ILE          
   6 A  258  ASN LYS ASP ASP ILE VAL ALA TYR SER PRO ILE LEU GLU          
   7 A  258  LYS TYR VAL GLY LYS ASP ILE THR LEU LYS ALA LEU ILE          
   8 A  258  GLU ALA SER MET THR TYR SER ASP ASN THR ALA ASN ASN          
   9 A  258  LYS ILE ILE LYS GLU ILE GLY GLY ILE LYS LYS VAL LYS          
  10 A  258  GLN ARG LEU LYS GLU LEU GLY ASP LYS VAL THR ASN PRO          
  11 A  258  VAL ARG TYR ASP ILE GLU LEU GLN TYR TYR SER PRO LYS          
  12 A  258  SER LYS LYS ASP THR SER THR PRO ALA ALA PHE GLY LYS          
  13 A  258  THR LEU ASN LYS LEU ILE ALA ASN GLY LYS LEU SER LYS          
  14 A  258  GLU ASN LYS LYS PHE LEU LEU ASP LEU MET LEU ASN ASN          
  15 A  258  LYS SER GLY ASP THR LEU ILE LYS ASP GLY VAL PRO LYS          
  16 A  258  ASP TYR LYS VAL ALA ASP LYS SER GLY GLN ALA ILE THR          
  17 A  258  TYR ALA SER ARG ASN ASP VAL ALA PHE VAL TYR PRO LYS          
  18 A  258  GLY GLN SER GLU PRO ILE VAL LEU VAL ILE PHE THR ASN          
  19 A  258  LYS ASP ASN LYS SER ASP LYS PRO ASN ASP LYS LEU ILE          
  20 A  258  SER GLU THR ALA LYS SER VAL MET LYS GLU PHE                  

>  <HET>
 SO4  A   2       5                                                       
 SO4  A   3       5                                                       
 SO4  A   4       5                                                       
 SO4  A   5       5                                                       
 SO4  A   6       5                                                       
 CO3  A   7       4                                                       
 CED  A   1      22                                                       

>  <HETNAM>
     SO4 SULFATE ION                                                      
     CO3 CARBONATE ION                                                    
     CED 5-METHYL-2-[2-OXO-1-(2-THIOPHEN-2-YL-ACETYLAMINO)-               
   2 CED  ETHYL]-3,6-DIHYDRO-2H-[1,3]THIAZINE-4-CARBOXYLIC ACID           

>  <HETSYN>
     CED DEGRADED CEPHALORIDINE, OPEN FORM                                

>  <FORMUL>
   2  SO4    5(O4 S 2-)                                                   
   7  CO3    C O3 2-                                                      
   8  CED    C14 H16 N2 O4 S2                                             
   9  HOH   *326(H2 O)                                                    

>  <HELIX>
   1   1 LEU A   33  TYR A   40  1                                   8    
   2   2 ALA A   69  LEU A   81  5                                  13    
   3   3 TYR A   88  LYS A   90  5                                   3    
   4   4 LYS A   99  ASP A  101  5                                   3    
   5   5 LEU A  109  TYR A  112  5                                   4    
   6   6 LEU A  119  THR A  128  1                                  10    
   7   7 ASN A  132  ILE A  142  1                                  11    
   8   8 ILE A  145  GLU A  154  1                                  10    
   9  10 PRO A  183  ILE A  194  1                                  12    
  10  11 LYS A  201  LEU A  212  1                                  12    
  11  12 LYS A  215  GLY A  217  5                                   3    
  12  13 ILE A  221  GLY A  224  1                                   4    
  13  14 ASP A  276  LYS A  288  5                                  13    

>  <SHEET>
   1   A 5 GLU A  56  PHE A  60  0                                        
   2   A 5 HIS A  43  ASP A  50 -1  N  ALA A  48   O  VAL A  57           
   3   A 5 ILE A 259  ASN A 266 -1  N  ASN A 266   O  HIS A  43           
   4   A 5 ARG A 244  TYR A 251 -1  N  VAL A 250   O  ILE A 259           
   5   A 5 LYS A 230  GLN A 237 -1  N  GLY A 236   O  ASN A 245           
   1   B 2 ARG A  65  ALA A  67  0                                        
   2   B 2 THR A 180  THR A 182 -1  N  SER A 181   O  PHE A  66           
   1   C 2 LYS A  94  ILE A  97  0                                        
   2   C 2 LYS A 115  THR A 118 -1  N  ILE A 117   O  VAL A  95           

>  <LINK>
       C8  CED A   1                 OG  SER A  70     1555   1555  1.36  

>  <CISPEP>
   1 ASP A  166    ILE A  167          0         0.85                     

>  <SITE>
   1 AC1  6 ARG A  65  HOH A 362  HOH A 458  HOH A 473                    
   2 AC1  6 HOH A 489  HOH A 574                                          
   1 AC2  6 ARG A  65  LYS A 158  LYS A 177  HOH A 313                    
   2 AC2  6 HOH A 476  HOH A 574                                          
   1 AC3  7 GLY A 144  ILE A 145  LYS A 146  TYR A 165                    
   2 AC3  7 HOH A 514  HOH A 529  HOH A 599                               
   1 AC4  6 LYS A  59  PHE A  60  ASN A  61  SER A  62                    
   2 AC4  6 HOH A 330  HOH A 584                                          
   1 AC5  5 SER A 176  LYS A 177  LYS A 178  HOH A 342                    
   2 AC5  5 HOH A 488                                                     
   1 AC6  4 LYS A 115  ASP A 116  LYS A 277  HOH A 363                    
   1 AC7 14 ALA A  69  SER A  70  TYR A 105  LYS A 111                    
   2 AC7 14 SER A 130  ASN A 132  ILE A 167  GLN A 170                    
   3 AC7 14 LYS A 234  SER A 235  GLY A 236  GLN A 237                    
   4 AC7 14 ARG A 244  HOH A 357                                          

>  <ORIGX1>
      1.000000  0.000000  0.000000        0.00000                         

>  <ORIGX2>
      0.000000  1.000000  0.000000        0.00000                         

>  <ORIGX3>
      0.000000  0.000000  1.000000        0.00000                         

>  <SCALE1>
      0.018692  0.000000  0.000000        0.00000                         

>  <SCALE2>
      0.000000  0.011013  0.000000        0.00000                         

>  <SCALE3>
      0.000000  0.000000  0.007133        0.00000                         

>  <MASTER>
      333    0    7   13    9    0   15    6 2406    1   52   20          

$$$$
