start_structures/Ligand_Substrate/Ligand_Complex_Stripped/CEF_7K2W.pdb
 OpenBabel08222315203D

 32 33  0  0  1  0  0  0  0  0999 V2000
   -1.0910    0.5360  -18.0810 N   0  0  0  0  0  0  0  0  0  0  0  0
    0.2200   -0.0340  -17.7930 C   0  0  2  0  0  0  0  0  0  0  0  0
    1.3690    0.9570  -17.9460 C   0  0  0  0  0  0  0  0  0  0  0  0
    2.5050    0.5920  -17.6280 O   0  0  0  0  0  0  0  0  0  0  0  0
    0.4660   -1.2800  -18.6470 C   0  0  0  0  0  0  0  0  0  0  0  0
   -0.4630   -2.3050  -18.3300 O   0  0  0  0  0  0  0  0  0  0  0  0
   -2.2830   -6.1230  -20.5350 S   0  0  0  0  0  0  0  0  0  0  0  0
   -1.0990   -6.5290  -21.8450 C   0  0  0  0  0  0  0  0  0  0  0  0
   -1.0520   -5.3690  -22.8000 C   0  0  0  0  0  0  0  0  0  0  0  0
   -1.2870   -5.4770  -24.1000 C   0  0  0  0  0  0  0  0  0  0  0  0
   -0.7130   -4.0930  -22.1730 C   0  0  0  0  0  0  0  0  0  0  0  0
   -0.1610   -3.0470  -23.0770 C   0  0  0  0  0  0  0  0  0  0  0  0
   -1.0510   -2.3100  -23.6860 O   0  0  0  0  0  0  0  0  0  0  0  0
    1.0450   -2.9030  -23.2230 O   0  0  0  0  0  0  0  0  0  0  0  0
   -0.8330   -3.7570  -20.9450 N   0  0  0  0  0  0  0  0  0  0  0  0
   -1.3530   -4.6660  -19.9300 C   0  0  1  0  0  0  0  0  0  0  0  0
   -2.3140   -3.8710  -18.9440 C   0  0  1  0  0  0  0  0  0  0  0  0
   -1.7170   -2.4230  -18.8800 C   0  0  0  0  0  0  0  0  0  0  0  0
   -2.1480   -1.5600  -19.5860 O   0  0  0  0  0  0  0  0  0  0  0  0
   -3.7180   -3.8520  -19.3470 N   0  0  0  0  0  0  0  0  0  0  0  0
   -4.6010   -4.6860  -18.7750 C   0  0  0  0  0  0  0  0  0  0  0  0
   -4.2770   -5.5580  -17.9720 O   0  0  0  0  0  0  0  0  0  0  0  0
   -6.0280   -4.4650  -19.1460 C   0  0  0  0  0  0  0  0  0  0  0  0
   -6.7760   -5.1560  -18.3680 N   0  0  0  0  0  0  0  0  0  0  0  0
   -7.1360   -4.4180  -17.2290 O   0  0  0  0  0  0  0  0  0  0  0  0
   -8.2310   -5.0810  -16.5880 C   0  0  0  0  0  0  0  0  0  0  0  0
   -6.5530   -4.3690  -20.5090 C   0  0  0  0  0  0  0  0  0  0  0  0
   -7.8860   -4.3740  -20.7680 C   0  0  0  0  0  0  0  0  0  0  0  0
   -8.1720   -4.2580  -22.4590 S   0  0  0  0  0  0  0  0  0  0  0  0
   -6.4460   -4.2180  -22.7170 C   0  0  0  0  0  0  0  0  0  0  0  0
   -5.9360   -4.1280  -23.9470 N   0  0  0  0  0  0  0  0  0  0  0  0
   -5.7280   -4.2860  -21.6160 N   0  0  0  0  0  0  0  0  0  0  0  0
  2  1  1  6  0  0  0
  3  2  1  0  0  0  0
  3  4  2  0  0  0  0
  5  6  1  0  0  0  0
  5  2  1  0  0  0  0
  6 18  1  0  0  0  0
  7  8  1  0  0  0  0
  7 16  1  0  0  0  0
  8  9  1  0  0  0  0
  9 10  2  0  0  0  0
  9 11  1  0  0  0  0
 11 12  1  0  0  0  0
 11 15  2  0  0  0  0
 12 13  2  0  0  0  0
 12 14  1  0  0  0  0
 15 16  1  0  0  0  0
 16 17  1  1  0  0  0
 17 18  1  6  0  0  0
 17 20  1  0  0  0  0
 18 19  2  0  0  0  0
 20 21  1  0  0  0  0
 21 22  2  0  0  0  0
 21 23  1  0  0  0  0
 23 24  2  3  0  0  0
 23 27  1  0  0  0  0
 24 25  1  0  0  0  0
 25 26  1  0  0  0  0
 27 28  2  0  0  0  0
 27 32  1  0  0  0  0
 28 29  1  0  0  0  0
 29 30  1  0  0  0  0
 30 31  1  0  0  0  0
 30 32  2  0  0  0  0
M  END
>  <HEADER>
    HYDROLASE                               09-SEP-20   7K2W              

>  <TITLE>
    CRYSTAL STRUCTURE OF CTX-M-14 E166A/K234R BETA-LACTAMASE IN COMPLEX   
   2 WITH HYDROLYZED CEFOTAXIME                                           

>  <COMPND>
    MOL_ID: 1;                                                            
   2 MOLECULE: BETA-LACTAMASE;                                            
   3 CHAIN: A;                                                            
   4 EC: 3.5.2.6;                                                         
   5 ENGINEERED: YES;                                                     
   6 MUTATION: YES                                                        

>  <SOURCE>
    MOL_ID: 1;                                                            
   2 ORGANISM_SCIENTIFIC: ESCHERICHIA COLI;                               
   3 ORGANISM_TAXID: 562;                                                 
   4 GENE: BLACTX-M;                                                      
   5 EXPRESSION_SYSTEM: ESCHERICHIA COLI BL21(DE3);                       
   6 EXPRESSION_SYSTEM_TAXID: 469008;                                     
   7 EXPRESSION_SYSTEM_STRAIN: BL21(DE3)                                  

>  <KEYWDS>
    ANTIBIOTIC RESISTANCE, ACYL-ENZYME INTERMEDIATE, HYDROLASE            

>  <EXPDTA>
    X-RAY DIFFRACTION                                                     

>  <AUTHOR>
    S.LU,T.PALZKILL,B.SANKARAN,L.HU,V.SOEUNG,B.V.V.PRASAD                 

>  <REVDAT>
   3   30-JUN-21 7K2W    1       AUTHOR                                   
   2   19-MAY-21 7K2W    1       JRNL                                     
   1   04-NOV-20 7K2W    0                                                

>  <JRNL>
      AUTH   V.SOEUNG,S.LU,L.HU,A.JUDGE,B.SANKARAN,B.V.V.PRASAD,          
      AUTH 2 T.PALZKILL                                                   
      TITL   A DRUG-RESISTANT BETA-LACTAMASE VARIANT CHANGES THE          
      TITL 2 CONFORMATION OF ITS ACTIVE-SITE PROTON SHUTTLE TO ALTER      
      TITL 3 SUBSTRATE SPECIFICITY AND INHIBITOR POTENCY.                 
      REF    J.BIOL.CHEM.                  V. 295 18239 2020              
      REFN                   ESSN 1083-351X                               
      PMID   33109613                                                     
      DOI    10.1074/JBC.RA120.016103                                     

>  <REMARK>
   2                                                                      
   2 RESOLUTION.    1.40 ANGSTROMS.                                       
   3                                                                      
   3 REFINEMENT.                                                          
   3   PROGRAM     : PHENIX 1.18.2_3874                                   
   3   AUTHORS     : PAUL ADAMS,PAVEL AFONINE,VINCENT CHEN,IAN            
   3               : DAVIS,KRESHNA GOPAL,RALF GROSSE-KUNSTLEVE,           
   3               : LI-WEI HUNG,ROBERT IMMORMINO,TOM IOERGER,            
   3               : AIRLIE MCCOY,ERIK MCKEE,NIGEL MORIARTY,              
   3               : REETAL PAI,RANDY READ,JANE RICHARDSON,               
   3               : DAVID RICHARDSON,TOD ROMO,JIM SACCHETTINI,           
   3               : NICHOLAS SAUTER,JACOB SMITH,LAURENT                  
   3               : STORONI,TOM TERWILLIGER,PETER ZWART                  
   3                                                                      
   3    REFINEMENT TARGET : GEOSTD + MONOMER LIBRARY + CDL V1.2           
   3                                                                      
   3  DATA USED IN REFINEMENT.                                            
   3   RESOLUTION RANGE HIGH (ANGSTROMS) : 1.40                           
   3   RESOLUTION RANGE LOW  (ANGSTROMS) : 34.45                          
   3   MIN(FOBS/SIGMA_FOBS)              : 1.380                          
   3   COMPLETENESS FOR RANGE        (%) : 97.6                           
   3   NUMBER OF REFLECTIONS             : 46585                          
   3                                                                      
   3  FIT TO DATA USED IN REFINEMENT.                                     
   3   R VALUE     (WORKING + TEST SET) : 0.201                           
   3   R VALUE            (WORKING SET) : 0.199                           
   3   FREE R VALUE                     : 0.244                           
   3   FREE R VALUE TEST SET SIZE   (%) : 4.980                           
   3   FREE R VALUE TEST SET COUNT      : 2321                            
   3                                                                      
   3  FIT TO DATA USED IN REFINEMENT (IN BINS).                           
   3   BIN  RESOLUTION RANGE  COMPL.    NWORK NFREE   RWORK  RFREE        
   3     1 34.4500 -  3.6000    0.85     2508   119  0.1785 0.2221        
   3     2  3.6000 -  2.8600    0.94     2619   126  0.1770 0.2209        
   3     3  2.8600 -  2.5000    0.97     2617   143  0.1959 0.2120        
   3     4  2.5000 -  2.2700    0.97     2606   148  0.2001 0.2381        
   3     5  2.2700 -  2.1100    0.98     2613   131  0.1881 0.2445        
   3     6  2.1000 -  1.9800    0.98     2607   133  0.1983 0.2807        
   3     7  1.9800 -  1.8800    0.98     2634   139  0.2039 0.2834        
   3     8  1.8800 -  1.8000    0.99     2546   159  0.2099 0.2319        
   3     9  1.8000 -  1.7300    0.99     2634   120  0.2102 0.2396        
   3    10  1.7300 -  1.6700    0.99     2614   140  0.2109 0.2616        
   3    11  1.6700 -  1.6200    0.99     2629   135  0.2205 0.2708        
   3    12  1.6200 -  1.5700    0.99     2624   125  0.2208 0.2480        
   3    13  1.5700 -  1.5300    1.00     2602   132  0.2188 0.2788        
   3    14  1.5300 -  1.4900    1.00     2575   169  0.2259 0.2887        
   3    15  1.4900 -  1.4600    1.00     2637   127  0.2295 0.2624        
   3    16  1.4600 -  1.4300    1.00     2597   121  0.2297 0.2834        
   3    17  1.4300 -  1.4000    1.00     2602   154  0.2280 0.2548        
   3                                                                      
   3  BULK SOLVENT MODELLING.                                             
   3   METHOD USED        : FLAT BULK SOLVENT MODEL                       
   3   SOLVENT RADIUS     : 1.11                                          
   3   SHRINKAGE RADIUS   : 0.90                                          
   3   K_SOL              : NULL                                          
   3   B_SOL              : NULL                                          
   3                                                                      
   3  ERROR ESTIMATES.                                                    
   3   COORDINATE ERROR (MAXIMUM-LIKELIHOOD BASED)     : 0.163            
   3   PHASE ERROR (DEGREES, MAXIMUM-LIKELIHOOD BASED) : 22.322           
   3                                                                      
   3  B VALUES.                                                           
   3   FROM WILSON PLOT           (A**2) : 9.97                           
   3   MEAN B VALUE      (OVERALL, A**2) : 20.67                          
   3   OVERALL ANISOTROPIC B VALUE.                                       
   3    B11 (A**2) : NULL                                                 
   3    B22 (A**2) : NULL                                                 
   3    B33 (A**2) : NULL                                                 
   3    B12 (A**2) : NULL                                                 
   3    B13 (A**2) : NULL                                                 
   3    B23 (A**2) : NULL                                                 
   3                                                                      
   3  TWINNING INFORMATION.                                               
   3   FRACTION: NULL                                                     
   3   OPERATOR: NULL                                                     
   3                                                                      
   3  DEVIATIONS FROM IDEAL VALUES.                                       
   3                 RMSD          COUNT                                  
   3   BOND      :  0.004           1991                                  
   3   ANGLE     :  0.830           2710                                  
   3   CHIRALITY :  0.069            320                                  
   3   PLANARITY :  0.007            357                                  
   3   DIHEDRAL  : 18.584            300                                  
   3                                                                      
   3  TLS DETAILS                                                         
   3   NUMBER OF TLS GROUPS  : NULL                                       
   3                                                                      
   3  NCS DETAILS                                                         
   3   NUMBER OF NCS GROUPS : NULL                                        
   3                                                                      
   3  OTHER REFINEMENT REMARKS: NULL                                      
   4                                                                      
   4 7K2W COMPLIES WITH FORMAT V. 3.30, 13-JUL-11                         
 100                                                                      
 100 THIS ENTRY HAS BEEN PROCESSED BY RCSB ON 10-SEP-20.                  
 100 THE DEPOSITION ID IS D_1000251568.                                   
 200                                                                      
 200 EXPERIMENTAL DETAILS                                                 
 200  EXPERIMENT TYPE                : X-RAY DIFFRACTION                  
 200  DATE OF DATA COLLECTION        : 22-MAR-19                          
 200  TEMPERATURE           (KELVIN) : 100                                
 200  PH                             : NULL                               
 200  NUMBER OF CRYSTALS USED        : 1                                  
 200                                                                      
 200  SYNCHROTRON              (Y/N) : Y                                  
 200  RADIATION SOURCE               : ALS                                
 200  BEAMLINE                       : 8.2.1                              
 200  X-RAY GENERATOR MODEL          : NULL                               
 200  MONOCHROMATIC OR LAUE    (M/L) : M                                  
 200  WAVELENGTH OR RANGE        (A) : 1.11                               
 200  MONOCHROMATOR                  : NULL                               
 200  OPTICS                         : NULL                               
 200                                                                      
 200  DETECTOR TYPE                  : CCD                                
 200  DETECTOR MANUFACTURER          : ADSC QUANTUM 315R                  
 200  INTENSITY-INTEGRATION SOFTWARE : HKL-2000                           
 200  DATA SCALING SOFTWARE          : HKL-2000                           
 200                                                                      
 200  NUMBER OF UNIQUE REFLECTIONS   : 46585                              
 200  RESOLUTION RANGE HIGH      (A) : 1.400                              
 200  RESOLUTION RANGE LOW       (A) : 34.450                             
 200  REJECTION CRITERIA  (SIGMA(I)) : NULL                               
 200                                                                      
 200 OVERALL.                                                             
 200  COMPLETENESS FOR RANGE     (%) : 98.4                               
 200  DATA REDUNDANCY                : 7.300                              
 200  R MERGE                    (I) : 0.03000                            
 200  R SYM                      (I) : NULL                               
 200  <I/SIGMA(I)> FOR THE DATA SET  : 35.1000                            
 200                                                                      
 200 IN THE HIGHEST RESOLUTION SHELL.                                     
 200  HIGHEST RESOLUTION SHELL, RANGE HIGH (A) : 1.40                     
 200  HIGHEST RESOLUTION SHELL, RANGE LOW  (A) : 3.60                     
 200  COMPLETENESS FOR SHELL     (%) : 99.9                               
 200  DATA REDUNDANCY IN SHELL       : NULL                               
 200  R MERGE FOR SHELL          (I) : 0.07200                            
 200  R SYM FOR SHELL            (I) : NULL                               
 200  <I/SIGMA(I)> FOR SHELL         : 15.70                              
 200                                                                      
 200 DIFFRACTION PROTOCOL: SINGLE WAVELENGTH                              
 200 METHOD USED TO DETERMINE THE STRUCTURE: MOLECULAR REPLACEMENT        
 200 SOFTWARE USED: PHASER                                                
 200 STARTING MODEL: 1YLT                                                 
 200                                                                      
 200 REMARK: NULL                                                         
 280                                                                      
 280 CRYSTAL                                                              
 280 SOLVENT CONTENT, VS   (%): 40.22                                     
 280 MATTHEWS COEFFICIENT, VM (ANGSTROMS**3/DA): 2.06                     
 280                                                                      
 280 CRYSTALLIZATION CONDITIONS: 0.2 M LITHIUM CHLORIDE 0.1 M TRIS PH8    
 280  20%(W/V) PEG6000, VAPOR DIFFUSION, HANGING DROP, TEMPERATURE 296K   
 290                                                                      
 290 CRYSTALLOGRAPHIC SYMMETRY                                            
 290 SYMMETRY OPERATORS FOR SPACE GROUP: P 32 2 1                         
 290                                                                      
 290      SYMOP   SYMMETRY                                                
 290     NNNMMM   OPERATOR                                                
 290       1555   X,Y,Z                                                   
 290       2555   -Y,X-Y,Z+2/3                                            
 290       3555   -X+Y,-X,Z+1/3                                           
 290       4555   Y,X,-Z                                                  
 290       5555   X-Y,-Y,-Z+1/3                                           
 290       6555   -X,-X+Y,-Z+2/3                                          
 290                                                                      
 290     WHERE NNN -> OPERATOR NUMBER                                     
 290           MMM -> TRANSLATION VECTOR                                  
 290                                                                      
 290 CRYSTALLOGRAPHIC SYMMETRY TRANSFORMATIONS                            
 290 THE FOLLOWING TRANSFORMATIONS OPERATE ON THE ATOM/HETATM             
 290 RECORDS IN THIS ENTRY TO PRODUCE CRYSTALLOGRAPHICALLY                
 290 RELATED MOLECULES.                                                   
 290   SMTRY1   1  1.000000  0.000000  0.000000        0.00000            
 290   SMTRY2   1  0.000000  1.000000  0.000000        0.00000            
 290   SMTRY3   1  0.000000  0.000000  1.000000        0.00000            
 290   SMTRY1   2 -0.500000 -0.866025  0.000000        0.00000            
 290   SMTRY2   2  0.866025 -0.500000  0.000000        0.00000            
 290   SMTRY3   2  0.000000  0.000000  1.000000      154.87267            
 290   SMTRY1   3 -0.500000  0.866025  0.000000        0.00000            
 290   SMTRY2   3 -0.866025 -0.500000  0.000000        0.00000            
 290   SMTRY3   3  0.000000  0.000000  1.000000       77.43633            
 290   SMTRY1   4 -0.500000  0.866025  0.000000        0.00000            
 290   SMTRY2   4  0.866025  0.500000  0.000000        0.00000            
 290   SMTRY3   4  0.000000  0.000000 -1.000000        0.00000            
 290   SMTRY1   5  1.000000  0.000000  0.000000        0.00000            
 290   SMTRY2   5  0.000000 -1.000000  0.000000        0.00000            
 290   SMTRY3   5  0.000000  0.000000 -1.000000       77.43633            
 290   SMTRY1   6 -0.500000 -0.866025  0.000000        0.00000            
 290   SMTRY2   6 -0.866025  0.500000  0.000000        0.00000            
 290   SMTRY3   6  0.000000  0.000000 -1.000000      154.87267            
 290                                                                      
 290 REMARK: NULL                                                         
 300                                                                      
 300 BIOMOLECULE: 1                                                       
 300 SEE REMARK 350 FOR THE AUTHOR PROVIDED AND/OR PROGRAM                
 300 GENERATED ASSEMBLY INFORMATION FOR THE STRUCTURE IN                  
 300 THIS ENTRY. THE REMARK MAY ALSO PROVIDE INFORMATION ON               
 300 BURIED SURFACE AREA.                                                 
 350                                                                      
 350 COORDINATES FOR A COMPLETE MULTIMER REPRESENTING THE KNOWN           
 350 BIOLOGICALLY SIGNIFICANT OLIGOMERIZATION STATE OF THE                
 350 MOLECULE CAN BE GENERATED BY APPLYING BIOMT TRANSFORMATIONS          
 350 GIVEN BELOW.  BOTH NON-CRYSTALLOGRAPHIC AND                          
 350 CRYSTALLOGRAPHIC OPERATIONS ARE GIVEN.                               
 350                                                                      
 350 BIOMOLECULE: 1                                                       
 350 AUTHOR DETERMINED BIOLOGICAL UNIT: MONOMERIC                         
 350 SOFTWARE DETERMINED QUATERNARY STRUCTURE: MONOMERIC                  
 350 SOFTWARE USED: PISA                                                  
 350 APPLY THE FOLLOWING TO CHAINS: A                                     
 350   BIOMT1   1  1.000000  0.000000  0.000000        0.00000            
 350   BIOMT2   1  0.000000  1.000000  0.000000        0.00000            
 350   BIOMT3   1  0.000000  0.000000  1.000000        0.00000            
 375                                                                      
 375 SPECIAL POSITION                                                     
 375 THE FOLLOWING ATOMS ARE FOUND TO BE WITHIN 0.15 ANGSTROMS            
 375 OF A SYMMETRY RELATED ATOM AND ARE ASSUMED TO BE ON SPECIAL          
 375 POSITIONS.                                                           
 375                                                                      
 375 ATOM RES CSSEQI                                                      
 375      HOH A 709  LIES ON A SPECIAL POSITION.                          
 375      HOH A 771  LIES ON A SPECIAL POSITION.                          
 465                                                                      
 465 MISSING RESIDUES                                                     
 465 THE FOLLOWING RESIDUES WERE NOT LOCATED IN THE                       
 465 EXPERIMENT. (M=MODEL NUMBER; RES=RESIDUE NAME; C=CHAIN               
 465 IDENTIFIER; SSSEQ=SEQUENCE NUMBER; I=INSERTION CODE.)                
 465                                                                      
 465   M RES C SSSEQI                                                     
 465     UNK A   253                                                      
 480                                                                      
 480 ZERO OCCUPANCY ATOM                                                  
 480 THE FOLLOWING RESIDUES HAVE ATOMS MODELED WITH ZERO                  
 480 OCCUPANCY. THE LOCATION AND PROPERTIES OF THESE ATOMS                
 480 MAY NOT BE RELIABLE. (M=MODEL NUMBER; RES=RESIDUE NAME;              
 480 C=CHAIN IDENTIFIER; SSEQ=SEQUENCE NUMBER; I=INSERTION CODE):         
 480   M RES C SSEQI ATOMS                                                
 480     LYS A   98   CE                                                  
 480     ARG A  184   CZ                                                  
 480     GLU A  273   CD                                                  
 480     GLU A  288   CD                                                  
 500                                                                      
 500 GEOMETRY AND STEREOCHEMISTRY                                         
 500 SUBTOPIC: CLOSE CONTACTS IN SAME ASYMMETRIC UNIT                     
 500                                                                      
 500 THE FOLLOWING ATOMS ARE IN CLOSE CONTACT.                            
 500                                                                      
 500  ATM1  RES C  SSEQI   ATM2  RES C  SSEQI           DISTANCE          
 500   OG   SER A   130     NH1  ARG A   234              2.13            
 500   O    HOH A   418     O    HOH A   621              2.16            
 500   O    HOH A   675     O    HOH A   727              2.18            
 500   O    HOH A   467     O    HOH A   686              2.19            
 500                                                                      
 500 REMARK: NULL                                                         
 500                                                                      
 500 GEOMETRY AND STEREOCHEMISTRY                                         
 500 SUBTOPIC: CLOSE CONTACTS                                             
 500                                                                      
 500 THE FOLLOWING ATOMS THAT ARE RELATED BY CRYSTALLOGRAPHIC             
 500 SYMMETRY ARE IN CLOSE CONTACT.  AN ATOM LOCATED WITHIN 0.15          
 500 ANGSTROMS OF A SYMMETRY RELATED ATOM IS ASSUMED TO BE ON A           
 500 SPECIAL POSITION AND IS, THEREFORE, LISTED IN REMARK 375             
 500 INSTEAD OF REMARK 500.  ATOMS WITH NON-BLANK ALTERNATE               
 500 LOCATION INDICATORS ARE NOT INCLUDED IN THE CALCULATIONS.            
 500                                                                      
 500 DISTANCE CUTOFF:                                                     
 500 2.2 ANGSTROMS FOR CONTACTS NOT INVOLVING HYDROGEN ATOMS              
 500 1.6 ANGSTROMS FOR CONTACTS INVOLVING HYDROGEN ATOMS                  
 500                                                                      
 500  ATM1  RES C  SSEQI   ATM2  RES C  SSEQI  SSYMOP   DISTANCE          
 500   O    HOH A   591     O    HOH A   636     1565     2.11            
 500                                                                      
 500 REMARK: NULL                                                         
 500                                                                      
 500 GEOMETRY AND STEREOCHEMISTRY                                         
 500 SUBTOPIC: COVALENT BOND ANGLES                                       
 500                                                                      
 500 THE STEREOCHEMICAL PARAMETERS OF THE FOLLOWING RESIDUES              
 500 HAVE VALUES WHICH DEVIATE FROM EXPECTED VALUES BY MORE               
 500 THAN 6*RMSD (M=MODEL NUMBER; RES=RESIDUE NAME; C=CHAIN               
 500 IDENTIFIER; SSEQ=SEQUENCE NUMBER; I=INSERTION CODE).                 
 500                                                                      
 500 STANDARD TABLE:                                                      
 500 FORMAT: (10X,I3,1X,A3,1X,A1,I4,A1,3(1X,A4,2X),12X,F5.1)              
 500                                                                      
 500 EXPECTED VALUES PROTEIN: ENGH AND HUBER, 1999                        
 500 EXPECTED VALUES NUCLEIC ACID: CLOWNEY ET AL 1996                     
 500                                                                      
 500  M RES CSSEQI ATM1   ATM2   ATM3                                     
 500    ARG A 234   NE  -  CZ  -  NH2 ANGL. DEV. =  -3.7 DEGREES          
 500                                                                      
 500 REMARK: NULL                                                         
 500                                                                      
 500 GEOMETRY AND STEREOCHEMISTRY                                         
 500 SUBTOPIC: TORSION ANGLES                                             
 500                                                                      
 500 TORSION ANGLES OUTSIDE THE EXPECTED RAMACHANDRAN REGIONS:            
 500 (M=MODEL NUMBER; RES=RESIDUE NAME; C=CHAIN IDENTIFIER;               
 500 SSEQ=SEQUENCE NUMBER; I=INSERTION CODE).                             
 500                                                                      
 500 STANDARD TABLE:                                                      
 500 FORMAT:(10X,I3,1X,A3,1X,A1,I4,A1,4X,F7.2,3X,F7.2)                    
 500                                                                      
 500 EXPECTED VALUES: GJ KLEYWEGT AND TA JONES (1996). PHI/PSI-           
 500 CHOLOGY: RAMACHANDRAN REVISITED. STRUCTURE 4, 1395 - 1400            
 500                                                                      
 500  M RES CSSEQI        PSI       PHI                                   
 500    THR A  51       34.68    -79.76                                   
 500    ASP A  53       19.41   -140.65                                   
 500    CYS A  69     -139.88     56.48                                   
 500    VAL A 103     -139.20   -123.03                                   
 500    ASN A 106       47.30   -140.01                                   
 500    SER A 220     -126.02   -104.78                                   
 500                                                                      
 500 REMARK: NULL                                                         
 500                                                                      
 500 GEOMETRY AND STEREOCHEMISTRY                                         
 500 SUBTOPIC: PLANAR GROUPS                                              
 500                                                                      
 500 PLANAR GROUPS IN THE FOLLOWING RESIDUES HAVE A TOTAL                 
 500 RMS DISTANCE OF ALL ATOMS FROM THE BEST-FIT PLANE                    
 500 BY MORE THAN AN EXPECTED VALUE OF 6*RMSD, WITH AN                    
 500 RMSD 0.02 ANGSTROMS, OR AT LEAST ONE ATOM HAS                        
 500 AN RMSD GREATER THAN THIS VALUE                                      
 500 (M=MODEL NUMBER; RES=RESIDUE NAME; C=CHAIN IDENTIFIER;               
 500 SSEQ=SEQUENCE NUMBER; I=INSERTION CODE).                             
 500                                                                      
 500  M RES CSSEQI        RMS     TYPE                                    
 500    ARG A 234         0.10    SIDE CHAIN                              
 500                                                                      
 500 REMARK: NULL                                                         
 525                                                                      
 525 SOLVENT                                                              
 525                                                                      
 525 THE SOLVENT MOLECULES HAVE CHAIN IDENTIFIERS THAT                    
 525 INDICATE THE POLYMER CHAIN WITH WHICH THEY ARE MOST                  
 525 CLOSELY ASSOCIATED. THE REMARK LISTS ALL THE SOLVENT                 
 525 MOLECULES WHICH ARE MORE THAN 5A AWAY FROM THE                       
 525 NEAREST POLYMER CHAIN (M = MODEL NUMBER;                             
 525 RES=RESIDUE NAME; C=CHAIN IDENTIFIER; SSEQ=SEQUENCE                  
 525 NUMBER; I=INSERTION CODE):                                           
 525                                                                      
 525  M RES CSSEQI                                                        
 525    HOH A 779        DISTANCE =  5.81 ANGSTROMS                       
 525    HOH A 780        DISTANCE =  6.62 ANGSTROMS                       

>  <DBREF1>
 7K2W A   27   289  UNP                  A0A2H4FY00_ECOLX                 

>  <DBREF2>
 7K2W A     A0A2H4FY00                         31         290             

>  <SEQADV>
 7K2W ASN A   31  UNP  A0A2H4FY0 GLN    35 CONFLICT                       
 7K2W ALA A  166  UNP  A0A2H4FY0 GLU   169 ENGINEERED MUTATION            
 7K2W ASP A  240  UNP  A0A2H4FY0 GLY   242 CONFLICT                       
 7K2W UNK A  253  UNP  A0A2H4FY0           INSERTION                      
 7K2W ASN A  254  UNP  A0A2H4FY0 GLN   255 CONFLICT                       

>  <SEQRES>
   1 A  261  SER ALA VAL GLN ASN LYS LEU ALA ALA LEU GLU LYS SER          
   2 A  261  SER GLY GLY ARG LEU GLY VAL ALA LEU ILE ASP THR ALA          
   3 A  261  ASP ASN THR GLN VAL LEU TYR ARG GLY ASP GLU ARG PHE          
   4 A  261  PRO MET CYS SER THR SER LYS VAL MET ALA ALA ALA ALA          
   5 A  261  VAL LEU LYS GLN SER GLU THR GLN LYS GLN LEU LEU ASN          
   6 A  261  GLN PRO VAL GLU ILE LYS PRO ALA ASP LEU VAL ASN TYR          
   7 A  261  ASN PRO ILE ALA GLU LYS HIS VAL ASN GLY THR MET THR          
   8 A  261  LEU ALA GLU LEU SER ALA ALA ALA LEU GLN TYR SER ASP          
   9 A  261  ASN THR ALA MET ASN LYS LEU ILE ALA GLN LEU GLY GLY          
  10 A  261  PRO GLY GLY VAL THR ALA PHE ALA ARG ALA ILE GLY ASP          
  11 A  261  GLU THR PHE ARG LEU ASP ARG THR ALA PRO THR LEU ASN          
  12 A  261  THR ALA ILE PRO GLY ASP PRO ARG ASP THR THR THR PRO          
  13 A  261  ARG ALA MET ALA GLN THR LEU ARG GLN LEU THR LEU GLY          
  14 A  261  HIS ALA LEU GLY GLU THR GLN ARG ALA GLN LEU VAL THR          
  15 A  261  TRP LEU LYS GLY ASN THR THR GLY ALA ALA SER ILE ARG          
  16 A  261  ALA GLY LEU PRO THR SER TRP THR VAL GLY ASP ARG THR          
  17 A  261  GLY SER GLY ASP TYR GLY THR THR ASN ASP ILE ALA VAL          
  18 A  261  ILE TRP PRO UNK ASN GLY ARG ALA PRO LEU VAL LEU VAL          
  19 A  261  THR TYR PHE THR GLN PRO GLN GLN ASN ALA GLU SER ARG          
  20 A  261  ARG ASP VAL LEU ALA SER ALA ALA ARG ILE ILE ALA GLU          
  21 A  261  GLY                                                          

>  <HET>
 CEF  A 301      26                                                       

>  <HETNAM>
     CEF CEFOTAXIME, C3' CLEAVED, OPEN, BOUND FORM                        

>  <FORMUL>
   2  CEF    C14 H15 N5 O5 S2                                             
   3  HOH   *380(H2 O)                                                    

>  <HELIX>
   1 AA1 SER A   27  SER A   39  1                                  13    
   2 AA2 CYS A   69  THR A   71  5                                   3    
   3 AA3 SER A   72  GLN A   87  1                                  16    
   4 AA4 GLN A   89  ASN A   92  5                                   4    
   5 AA5 LYS A   98  LEU A  102  5                                   5    
   6 AA6 ILE A  108  VAL A  113  5                                   6    
   7 AA7 LEU A  119  SER A  130  1                                  12    
   8 AA8 ASP A  131  LEU A  142  1                                  12    
   9 AA9 GLY A  144  ILE A  155  1                                  12    
  10 AB1 PRO A  167  THR A  171  5                                   5    
  11 AB2 THR A  182  LEU A  195  1                                  14    
  12 AB3 GLY A  200  GLY A  213  1                                  14    
  13 AB4 SER A  220  LEU A  225  5                                   6    
  14 AB5 ARG A  275  GLY A  289  1                                  15    

>  <SHEET>
   1 AA1 5 GLN A  56  TYR A  60  0                                        
   2 AA1 5 ARG A  43  ASP A  50 -1  N  LEU A  48   O  VAL A  57           
   3 AA1 5 LEU A 259  THR A 266 -1  O  THR A 266   N  ARG A  43           
   4 AA1 5 THR A 243  TRP A 251 -1  N  ILE A 250   O  LEU A 259           
   5 AA1 5 THR A 230  GLY A 238 -1  N  GLY A 236   O  ASN A 245           
   1 AA2 2 PHE A  66  PRO A  67  0                                        
   2 AA2 2 THR A 180  THR A 181 -1  O  THR A 181   N  PHE A  66           
   1 AA3 2 PRO A  94  ILE A  97  0                                        
   2 AA3 2 GLY A 115  THR A 118 -1  O  GLY A 115   N  ILE A  97           

>  <LINK>
       OG  SER A  70                 C8  CEF A 301     1555   1555  1.37  

>  <CISPEP>
   1 ALA A  166    PRO A  167          0         4.09                     

>  <ORIGX1>
      1.000000  0.000000  0.000000        0.00000                         

>  <ORIGX2>
      0.000000  1.000000  0.000000        0.00000                         

>  <ORIGX3>
      0.000000  0.000000  1.000000        0.00000                         

>  <SCALE1>
      0.024007  0.013861  0.000000        0.00000                         

>  <SCALE2>
      0.000000  0.027721  0.000000        0.00000                         

>  <SCALE3>
      0.000000  0.000000  0.004305        0.00000                         

>  <ANISOU>
  314  N   SER A  70      594    511    520   -160    167   -219       N  
  315  CA  SER A  70      503    952    659    347   -106   -236       C  
  316  C   SER A  70      840    790    462   -245     63     -1       C  
  317  O   SER A  70      658   1502    609    338   -110   -412       O  
  318  CB  SER A  70      539    857    918    -53   -103   -482       C  
  319  OG  SER A  70      979    862    914    126   -449   -346       O  

>  <MASTER>
      345    0    1   14    9    0    0    6 2342    1   27   21          

$$$$
