start_structures/Ligand_Substrate/Ligand_Complex_Stripped/CEO_2ZQ9.pdb
 OpenBabel08222315203D

 36 40  0  0  1  0  0  0  0  0999 V2000
   37.7820  -15.8140    5.9810 N   0  0  0  0  0  0  0  0  0  0  0  0
   37.7840  -17.2760    6.0040 C   0  0  2  0  0  0  0  0  0  0  0  0
   36.5410  -17.9090    5.3800 C   0  0  0  0  0  0  0  0  0  0  0  0
   36.5100  -19.1310    5.2220 O   0  0  0  0  0  0  0  0  0  0  0  0
   37.9340  -17.8100    7.4240 C   0  0  0  0  0  0  0  0  0  0  0  0
   39.2280  -17.5570    7.9820 O   0  0  0  0  0  0  0  0  0  0  0  0
   41.0250  -17.2740   12.3210 S   0  0  1  0  0  0  0  0  0  0  0  0
   39.9170  -16.0330   13.0720 C   0  0  0  0  0  0  0  0  0  0  0  0
   39.9930  -18.3900   13.3190 C   0  0  0  0  0  0  0  0  0  0  0  0
   38.4930  -16.5560   13.0630 C   0  0  1  0  0  0  0  0  0  0  0  0
   38.5170  -18.0640   13.1690 C   0  0  2  0  0  0  0  0  0  0  0  0
   37.6870  -16.1990   14.1460 C   0  0  0  0  0  0  0  0  0  0  0  0
   37.6650  -18.5210   14.1680 C   0  0  0  0  0  0  0  0  0  0  0  0
   38.0010  -17.3970   12.0610 C   0  0  1  0  0  0  0  0  0  0  0  0
   36.4960  -17.3550   11.8760 C   0  0  0  0  0  0  0  0  0  0  0  0
   35.9920  -18.0810   11.0310 O   0  0  0  0  0  0  0  0  0  0  0  0
   35.8730  -16.3980   12.3870 O   0  0  0  0  0  0  0  0  0  0  0  0
   38.6730  -17.5180   10.9230 N   0  0  0  0  0  0  0  0  0  0  0  0
   40.1410  -17.5110   10.7550 C   0  0  1  0  0  0  0  0  0  0  0  0
   40.5500  -16.5090    9.6380 C   0  0  1  0  0  0  0  0  0  0  0  0
   39.3640  -16.4410    8.7220 C   0  0  0  0  0  0  0  0  0  0  0  0
   38.5770  -15.5060    8.6720 O   0  0  0  0  0  0  0  0  0  0  0  0
   40.8930  -15.1960   10.1530 N   0  0  0  0  0  0  0  0  0  0  0  0
   42.1520  -14.8720   10.4510 C   0  0  0  0  0  0  0  0  0  0  0  0
   43.1050  -15.6220   10.2630 O   0  0  0  0  0  0  0  0  0  0  0  0
   42.3260  -13.5010   11.1040 C   0  0  0  0  0  0  0  0  0  0  0  0
   43.3000  -12.5530   10.4370 C   0  0  0  0  0  0  0  0  0  0  0  0
   43.2990  -12.5870   10.3590 C   0  0  0  0  0  0  0  0  0  0  0  0
   44.4110  -12.7690    9.7310 C   0  0  0  0  0  0  0  0  0  0  0  0
   43.2240  -11.2590   10.1830 C   0  0  0  0  0  0  0  0  0  0  0  0
   45.0170  -11.6370    9.3020 C   0  0  0  0  0  0  0  0  0  0  0  0
   44.2380  -10.7170    9.4720 C   0  0  0  0  0  0  0  0  0  0  0  0
   44.4190  -10.4850    9.6590 C   0  0  0  0  0  0  0  0  0  0  0  0
   45.1690  -11.5890    9.0510 C   0  0  0  0  0  0  0  0  0  0  0  0
   43.0460  -10.8980   10.5580 S   0  0  0  0  0  0  0  0  0  0  0  0
   44.6870  -13.1120    9.6120 S   0  0  0  0  0  0  0  0  0  0  0  0
  2  1  1  1  0  0  0
  2  5  1  0  0  0  0
  3  2  1  0  0  0  0
  4  3  2  0  0  0  0
  5  6  1  0  0  0  0
  6 21  1  0  0  0  0
  7  8  1  1  0  0  0
  7  9  1  0  0  0  0
  7 19  1  0  0  0  0
  8 10  1  0  0  0  0
  9 11  1  0  0  0  0
 10 12  1  1  0  0  0
 10 14  1  0  0  0  0
 10 11  1  0  0  0  0
 11 13  1  1  0  0  0
 11 14  1  0  0  0  0
 14 15  1  6  0  0  0
 14 18  1  0  0  0  0
 15 16  2  0  0  0  0
 15 17  1  0  0  0  0
 18 19  1  0  0  0  0
 19 20  1  6  0  0  0
 20 21  1  6  0  0  0
 20 23  1  0  0  0  0
 21 22  2  0  0  0  0
 23 24  1  0  0  0  0
 24 25  2  0  0  0  0
 24 26  1  0  0  0  0
 26 27  1  0  0  0  0
 26 28  1  0  0  0  0
 27 29  2  0  0  0  0
 27 35  1  0  0  0  0
 28 30  2  0  0  0  0
 28 36  1  0  0  0  0
 29 31  1  0  0  0  0
 30 32  1  0  0  0  0
 31 33  2  0  0  0  0
 32 34  2  0  0  0  0
 33 35  1  0  0  0  0
 34 36  1  0  0  0  0
M  END
>  <HEADER>
    HYDROLASE                               07-AUG-08   2ZQ9              

>  <TITLE>
    CEPHALOTHIN ACYL-INTERMEDIATE STRUCTURE OF CLASS A BETA-LACTAMASE     
   2 TOHO-1 E166A/R274N/R276N TRIPLE MUTANT                               

>  <COMPND>
    MOL_ID: 1;                                                            
   2 MOLECULE: BETA-LACTAMASE TOHO-1;                                     
   3 CHAIN: A;                                                            
   4 EC: 3.5.2.6;                                                         
   5 ENGINEERED: YES;                                                     
   6 MUTATION: YES                                                        

>  <SOURCE>
    MOL_ID: 1;                                                            
   2 ORGANISM_SCIENTIFIC: ESCHERICHIA COLI;                               
   3 ORGANISM_TAXID: 562;                                                 
   4 GENE: BLA;                                                           
   5 EXPRESSION_SYSTEM: ESCHERICHIA COLI;                                 
   6 EXPRESSION_SYSTEM_TAXID: 562;                                        
   7 EXPRESSION_SYSTEM_VECTOR_TYPE: PLASMID;                              
   8 EXPRESSION_SYSTEM_PLASMID: PUC119                                    

>  <KEYWDS>
    EXTENDED-SPECTRUM, ESBL, BETA-LACTAMASE, ACYL-ENZYME, COMPLEX,        
   2 CEPHALOTHIN, TOHO-1, HYDROLASE, ANTIBIOTIC RESISTANCE, PLASMID       

>  <EXPDTA>
    X-RAY DIFFRACTION                                                     

>  <AUTHOR>
    Y.NITANAI,T.SHIMAMURA,T.UCHIYAMA,Y.ISHII,M.TAKEHIRA,K.YUTANI,         
   2 H.MATSUZAWA,M.MIYANO                                                 

>  <REVDAT>
   2   10-NOV-21 2ZQ9    1       REMARK SEQADV LINK                       
   1   28-JUL-09 2ZQ9    0                                                

>  <JRNL>
      AUTH   Y.NITANAI,T.SHIMAMURA,T.UCHIYAMA,Y.ISHII,M.TAKEHIRA,         
      AUTH 2 K.YUTANI,H.MATSUZAWA,M.MIYANO                                
      TITL   STRUCTURAL BASIS OF EXTEND SPECTRUM BETA-LACTAMASE IN        
      TITL 2 CORRELATION OF ENZYMATIC KINETICS AND THERMAL STABILITY OF   
      TITL 3 ACYL-INTERMEDIATES                                           
      REF    TO BE PUBLISHED                                              
      REFN                                                                

>  <REMARK>
   2                                                                      
   2 RESOLUTION.    1.07 ANGSTROMS.                                       
   3                                                                      
   3 REFINEMENT.                                                          
   3   PROGRAM     : REFMAC 5.2.0019                                      
   3   AUTHORS     : MURSHUDOV,SKUBAK,LEBEDEV,PANNU,STEINER,              
   3               : NICHOLLS,WINN,LONG,VAGIN                             
   3                                                                      
   3    REFINEMENT TARGET : MAXIMUM LIKELIHOOD                            
   3                                                                      
   3  DATA USED IN REFINEMENT.                                            
   3   RESOLUTION RANGE HIGH (ANGSTROMS) : 1.07                           
   3   RESOLUTION RANGE LOW  (ANGSTROMS) : 50.00                          
   3   DATA CUTOFF            (SIGMA(F)) : NULL                           
   3   COMPLETENESS FOR RANGE        (%) : 99.0                           
   3   NUMBER OF REFLECTIONS             : 122579                         
   3                                                                      
   3  FIT TO DATA USED IN REFINEMENT.                                     
   3   CROSS-VALIDATION METHOD          : THROUGHOUT                      
   3   FREE R VALUE TEST SET SELECTION  : RANDOM                          
   3   R VALUE     (WORKING + TEST SET) : 0.133                           
   3   R VALUE            (WORKING SET) : 0.133                           
   3   FREE R VALUE                     : 0.146                           
   3   FREE R VALUE TEST SET SIZE   (%) : 5.000                           
   3   FREE R VALUE TEST SET COUNT      : 6485                            
   3                                                                      
   3  FIT IN THE HIGHEST RESOLUTION BIN.                                  
   3   TOTAL NUMBER OF BINS USED           : 20                           
   3   BIN RESOLUTION RANGE HIGH       (A) : 1.07                         
   3   BIN RESOLUTION RANGE LOW        (A) : 1.10                         
   3   REFLECTION IN BIN     (WORKING SET) : 8448                         
   3   BIN COMPLETENESS (WORKING+TEST) (%) : 92.05                        
   3   BIN R VALUE           (WORKING SET) : 0.1450                       
   3   BIN FREE R VALUE SET COUNT          : 405                          
   3   BIN FREE R VALUE                    : 0.1600                       
   3                                                                      
   3  NUMBER OF NON-HYDROGEN ATOMS USED IN REFINEMENT.                    
   3   PROTEIN ATOMS            : 1950                                    
   3   NUCLEIC ACID ATOMS       : 0                                       
   3   HETEROGEN ATOMS          : 67                                      
   3   SOLVENT ATOMS            : 353                                     
   3                                                                      
   3  B VALUES.                                                           
   3   FROM WILSON PLOT           (A**2) : NULL                           
   3   MEAN B VALUE      (OVERALL, A**2) : 10.41                          
   3   OVERALL ANISOTROPIC B VALUE.                                       
   3    B11 (A**2) : -0.01000                                             
   3    B22 (A**2) : -0.01000                                             
   3    B33 (A**2) : 0.02000                                              
   3    B12 (A**2) : -0.01000                                             
   3    B13 (A**2) : 0.00000                                              
   3    B23 (A**2) : 0.00000                                              
   3                                                                      
   3  ESTIMATED OVERALL COORDINATE ERROR.                                 
   3   ESU BASED ON R VALUE                            (A): 0.023         
   3   ESU BASED ON FREE R VALUE                       (A): 0.023         
   3   ESU BASED ON MAXIMUM LIKELIHOOD                 (A): 0.011         
   3   ESU FOR B VALUES BASED ON MAXIMUM LIKELIHOOD (A**2): 0.477         
   3                                                                      
   3 CORRELATION COEFFICIENTS.                                            
   3   CORRELATION COEFFICIENT FO-FC      : 0.972                         
   3   CORRELATION COEFFICIENT FO-FC FREE : 0.958                         
   3                                                                      
   3  RMS DEVIATIONS FROM IDEAL VALUES        COUNT    RMS    WEIGHT      
   3   BOND LENGTHS REFINED ATOMS        (A):  2211 ; 0.009 ; 0.022       
   3   BOND LENGTHS OTHERS               (A):  NULL ;  NULL ;  NULL       
   3   BOND ANGLES REFINED ATOMS   (DEGREES):  3043 ; 1.631 ; 1.999       
   3   BOND ANGLES OTHERS          (DEGREES):  NULL ;  NULL ;  NULL       
   3   TORSION ANGLES, PERIOD 1    (DEGREES):   304 ; 6.229 ; 5.000       
   3   TORSION ANGLES, PERIOD 2    (DEGREES):    92 ;37.706 ;25.761       
   3   TORSION ANGLES, PERIOD 3    (DEGREES):   383 ;11.552 ;15.000       
   3   TORSION ANGLES, PERIOD 4    (DEGREES):    11 ; 9.511 ;15.000       
   3   CHIRAL-CENTER RESTRAINTS       (A**3):   351 ; 0.090 ; 0.200       
   3   GENERAL PLANES REFINED ATOMS      (A):  1665 ; 0.008 ; 0.020       
   3   GENERAL PLANES OTHERS             (A):  NULL ;  NULL ;  NULL       
   3   NON-BONDED CONTACTS REFINED ATOMS (A):  1137 ; 0.203 ; 0.200       
   3   NON-BONDED CONTACTS OTHERS        (A):  NULL ;  NULL ;  NULL       
   3   NON-BONDED TORSION REFINED ATOMS  (A):  1543 ; 0.306 ; 0.200       
   3   NON-BONDED TORSION OTHERS         (A):  NULL ;  NULL ;  NULL       
   3   H-BOND (X...Y) REFINED ATOMS      (A):   238 ; 0.122 ; 0.200       
   3   H-BOND (X...Y) OTHERS             (A):  NULL ;  NULL ;  NULL       
   3   POTENTIAL METAL-ION REFINED ATOMS (A):  NULL ;  NULL ;  NULL       
   3   POTENTIAL METAL-ION OTHERS        (A):  NULL ;  NULL ;  NULL       
   3   SYMMETRY VDW REFINED ATOMS        (A):    98 ; 0.189 ; 0.200       
   3   SYMMETRY VDW OTHERS               (A):  NULL ;  NULL ;  NULL       
   3   SYMMETRY H-BOND REFINED ATOMS     (A):    48 ; 0.128 ; 0.200       
   3   SYMMETRY H-BOND OTHERS            (A):  NULL ;  NULL ;  NULL       
   3   SYMMETRY METAL-ION REFINED ATOMS  (A):  NULL ;  NULL ;  NULL       
   3   SYMMETRY METAL-ION OTHERS         (A):  NULL ;  NULL ;  NULL       
   3                                                                      
   3  ISOTROPIC THERMAL FACTOR RESTRAINTS.     COUNT   RMS    WEIGHT      
   3   MAIN-CHAIN BOND REFINED ATOMS  (A**2):  1396 ; 1.119 ; 1.500       
   3   MAIN-CHAIN BOND OTHER ATOMS    (A**2):  NULL ;  NULL ;  NULL       
   3   MAIN-CHAIN ANGLE REFINED ATOMS (A**2):  2229 ; 1.687 ; 2.000       
   3   MAIN-CHAIN ANGLE OTHER ATOMS   (A**2):  NULL ;  NULL ;  NULL       
   3   SIDE-CHAIN BOND REFINED ATOMS  (A**2):   888 ; 2.136 ; 3.000       
   3   SIDE-CHAIN BOND OTHER ATOMS    (A**2):  NULL ;  NULL ;  NULL       
   3   SIDE-CHAIN ANGLE REFINED ATOMS (A**2):   791 ; 3.090 ; 4.500       
   3   SIDE-CHAIN ANGLE OTHER ATOMS   (A**2):  NULL ;  NULL ;  NULL       
   3   LONG RANGE B REFINED ATOMS     (A**2):  NULL ;  NULL ;  NULL       
   3   LONG RANGE B OTHER ATOMS       (A**2):  NULL ;  NULL ;  NULL       
   3                                                                      
   3 ANISOTROPIC THERMAL FACTOR RESTRAINTS.    COUNT   RMS   WEIGHT       
   3   RIGID-BOND RESTRAINTS          (A**2):  2284 ; 1.056 ; 3.000       
   3   SPHERICITY; FREE ATOMS         (A**2):   397 ; 4.659 ; 3.000       
   3   SPHERICITY; BONDED ATOMS       (A**2):  2154 ; 3.723 ; 3.000       
   3                                                                      
   3  NCS RESTRAINTS STATISTICS                                           
   3   NUMBER OF DIFFERENT NCS GROUPS : NULL                              
   3                                                                      
   3  TLS DETAILS                                                         
   3   NUMBER OF TLS GROUPS  : NULL                                       
   3                                                                      
   3  BULK SOLVENT MODELLING.                                             
   3   METHOD USED : MASK                                                 
   3   PARAMETERS FOR MASK CALCULATION                                    
   3   VDW PROBE RADIUS   : 1.40                                          
   3   ION PROBE RADIUS   : 0.80                                          
   3   SHRINKAGE RADIUS   : 0.80                                          
   3                                                                      
   3  OTHER REFINEMENT REMARKS: NULL                                      
   4                                                                      
   4 2ZQ9 COMPLIES WITH FORMAT V. 3.30, 13-JUL-11                         
 100                                                                      
 100 THIS ENTRY HAS BEEN PROCESSED BY PDBJ ON 08-AUG-08.                  
 100 THE DEPOSITION ID IS D_1000028289.                                   
 200                                                                      
 200 EXPERIMENTAL DETAILS                                                 
 200  EXPERIMENT TYPE                : X-RAY DIFFRACTION                  
 200  DATE OF DATA COLLECTION        : 11-NOV-07                          
 200  TEMPERATURE           (KELVIN) : 100                                
 200  PH                             : 5.50                               
 200  NUMBER OF CRYSTALS USED        : 1                                  
 200                                                                      
 200  SYNCHROTRON              (Y/N) : Y                                  
 200  RADIATION SOURCE               : SPRING-8                           
 200  BEAMLINE                       : BL26B1                             
 200  X-RAY GENERATOR MODEL          : NULL                               
 200  MONOCHROMATIC OR LAUE    (M/L) : M                                  
 200  WAVELENGTH OR RANGE        (A) : 1.0000                             
 200  MONOCHROMATOR                  : SI(111)                            
 200  OPTICS                         : MIRRORS                            
 200                                                                      
 200  DETECTOR TYPE                  : CCD                                
 200  DETECTOR MANUFACTURER          : RIGAKU JUPITER 210                 
 200  INTENSITY-INTEGRATION SOFTWARE : HKL-2000                           
 200  DATA SCALING SOFTWARE          : SCALEPACK                          
 200                                                                      
 200  NUMBER OF UNIQUE REFLECTIONS   : 129204                             
 200  RESOLUTION RANGE HIGH      (A) : 1.070                              
 200  RESOLUTION RANGE LOW       (A) : 50.000                             
 200  REJECTION CRITERIA  (SIGMA(I)) : 0.000                              
 200                                                                      
 200 OVERALL.                                                             
 200  COMPLETENESS FOR RANGE     (%) : 99.0                               
 200  DATA REDUNDANCY                : 9.800                              
 200  R MERGE                    (I) : 0.04400                            
 200  R SYM                      (I) : NULL                               
 200  <I/SIGMA(I)> FOR THE DATA SET  : 47.0100                            
 200                                                                      
 200 IN THE HIGHEST RESOLUTION SHELL.                                     
 200  HIGHEST RESOLUTION SHELL, RANGE HIGH (A) : 1.07                     
 200  HIGHEST RESOLUTION SHELL, RANGE LOW  (A) : 1.09                     
 200  COMPLETENESS FOR SHELL     (%) : 91.5                               
 200  DATA REDUNDANCY IN SHELL       : 5.10                               
 200  R MERGE FOR SHELL          (I) : 0.29500                            
 200  R SYM FOR SHELL            (I) : NULL                               
 200  <I/SIGMA(I)> FOR SHELL         : 5.610                              
 200                                                                      
 200 DIFFRACTION PROTOCOL: SINGLE WAVELENGTH                              
 200 METHOD USED TO DETERMINE THE STRUCTURE: MOLECULAR REPLACEMENT        
 200 SOFTWARE USED: MOLREP                                                
 200 STARTING MODEL: PDB ENTRY 2ZQ7                                       
 200                                                                      
 200 REMARK: NULL                                                         
 280                                                                      
 280 CRYSTAL                                                              
 280 SOLVENT CONTENT, VS   (%): 52.90                                     
 280 MATTHEWS COEFFICIENT, VM (ANGSTROMS**3/DA): 2.61                     
 280                                                                      
 280 CRYSTALLIZATION CONDITIONS: 1.95-2.10M AMMONIUM SULFATE, 0.2M        
 280  SODIUM CITRATE, PH5.50, VAPOR DIFFUSION, HANGING DROP,              
 280  TEMPERATURE 298K                                                    
 290                                                                      
 290 CRYSTALLOGRAPHIC SYMMETRY                                            
 290 SYMMETRY OPERATORS FOR SPACE GROUP: P 32 2 1                         
 290                                                                      
 290      SYMOP   SYMMETRY                                                
 290     NNNMMM   OPERATOR                                                
 290       1555   X,Y,Z                                                   
 290       2555   -Y,X-Y,Z+2/3                                            
 290       3555   -X+Y,-X,Z+1/3                                           
 290       4555   Y,X,-Z                                                  
 290       5555   X-Y,-Y,-Z+1/3                                           
 290       6555   -X,-X+Y,-Z+2/3                                          
 290                                                                      
 290     WHERE NNN -> OPERATOR NUMBER                                     
 290           MMM -> TRANSLATION VECTOR                                  
 290                                                                      
 290 CRYSTALLOGRAPHIC SYMMETRY TRANSFORMATIONS                            
 290 THE FOLLOWING TRANSFORMATIONS OPERATE ON THE ATOM/HETATM             
 290 RECORDS IN THIS ENTRY TO PRODUCE CRYSTALLOGRAPHICALLY                
 290 RELATED MOLECULES.                                                   
 290   SMTRY1   1  1.000000  0.000000  0.000000        0.00000            
 290   SMTRY2   1  0.000000  1.000000  0.000000        0.00000            
 290   SMTRY3   1  0.000000  0.000000  1.000000        0.00000            
 290   SMTRY1   2 -0.500000 -0.866025  0.000000        0.00000            
 290   SMTRY2   2  0.866025 -0.500000  0.000000        0.00000            
 290   SMTRY3   2  0.000000  0.000000  1.000000       65.01200            
 290   SMTRY1   3 -0.500000  0.866025  0.000000        0.00000            
 290   SMTRY2   3 -0.866025 -0.500000  0.000000        0.00000            
 290   SMTRY3   3  0.000000  0.000000  1.000000       32.50600            
 290   SMTRY1   4 -0.500000  0.866025  0.000000        0.00000            
 290   SMTRY2   4  0.866025  0.500000  0.000000        0.00000            
 290   SMTRY3   4  0.000000  0.000000 -1.000000        0.00000            
 290   SMTRY1   5  1.000000  0.000000  0.000000        0.00000            
 290   SMTRY2   5  0.000000 -1.000000  0.000000        0.00000            
 290   SMTRY3   5  0.000000  0.000000 -1.000000       32.50600            
 290   SMTRY1   6 -0.500000 -0.866025  0.000000        0.00000            
 290   SMTRY2   6 -0.866025  0.500000  0.000000        0.00000            
 290   SMTRY3   6  0.000000  0.000000 -1.000000       65.01200            
 290                                                                      
 290 REMARK: NULL                                                         
 300                                                                      
 300 BIOMOLECULE: 1                                                       
 300 SEE REMARK 350 FOR THE AUTHOR PROVIDED AND/OR PROGRAM                
 300 GENERATED ASSEMBLY INFORMATION FOR THE STRUCTURE IN                  
 300 THIS ENTRY. THE REMARK MAY ALSO PROVIDE INFORMATION ON               
 300 BURIED SURFACE AREA.                                                 
 350                                                                      
 350 COORDINATES FOR A COMPLETE MULTIMER REPRESENTING THE KNOWN           
 350 BIOLOGICALLY SIGNIFICANT OLIGOMERIZATION STATE OF THE                
 350 MOLECULE CAN BE GENERATED BY APPLYING BIOMT TRANSFORMATIONS          
 350 GIVEN BELOW.  BOTH NON-CRYSTALLOGRAPHIC AND                          
 350 CRYSTALLOGRAPHIC OPERATIONS ARE GIVEN.                               
 350                                                                      
 350 BIOMOLECULE: 1                                                       
 350 AUTHOR DETERMINED BIOLOGICAL UNIT: MONOMERIC                         
 350 SOFTWARE DETERMINED QUATERNARY STRUCTURE: MONOMERIC                  
 350 SOFTWARE USED: PISA                                                  
 350 APPLY THE FOLLOWING TO CHAINS: A                                     
 350   BIOMT1   1  1.000000  0.000000  0.000000        0.00000            
 350   BIOMT2   1  0.000000  1.000000  0.000000        0.00000            
 350   BIOMT3   1  0.000000  0.000000  1.000000        0.00000            
 465                                                                      
 465 MISSING RESIDUES                                                     
 465 THE FOLLOWING RESIDUES WERE NOT LOCATED IN THE                       
 465 EXPERIMENT. (M=MODEL NUMBER; RES=RESIDUE NAME; C=CHAIN               
 465 IDENTIFIER; SSSEQ=SEQUENCE NUMBER; I=INSERTION CODE.)                
 465                                                                      
 465   M RES C SSSEQI                                                     
 465     ALA A    26                                                      
 465     GLY A   289                                                      
 465     PHE A   290                                                      
 470                                                                      
 470 MISSING ATOM                                                         
 470 THE FOLLOWING RESIDUES HAVE MISSING ATOMS (M=MODEL NUMBER;           
 470 RES=RESIDUE NAME; C=CHAIN IDENTIFIER; SSEQ=SEQUENCE NUMBER;          
 470 I=INSERTION CODE):                                                   
 470   M RES CSSEQI  ATOMS                                                
 470     ASN A  27    CG   OD1  ND2                                       
 500                                                                      
 500 GEOMETRY AND STEREOCHEMISTRY                                         
 500 SUBTOPIC: COVALENT BOND ANGLES                                       
 500                                                                      
 500 THE STEREOCHEMICAL PARAMETERS OF THE FOLLOWING RESIDUES              
 500 HAVE VALUES WHICH DEVIATE FROM EXPECTED VALUES BY MORE               
 500 THAN 6*RMSD (M=MODEL NUMBER; RES=RESIDUE NAME; C=CHAIN               
 500 IDENTIFIER; SSEQ=SEQUENCE NUMBER; I=INSERTION CODE).                 
 500                                                                      
 500 STANDARD TABLE:                                                      
 500 FORMAT: (10X,I3,1X,A3,1X,A1,I4,A1,3(1X,A4,2X),12X,F5.1)              
 500                                                                      
 500 EXPECTED VALUES PROTEIN: ENGH AND HUBER, 1999                        
 500 EXPECTED VALUES NUCLEIC ACID: CLOWNEY ET AL 1996                     
 500                                                                      
 500  M RES CSSEQI ATM1   ATM2   ATM3                                     
 500    ASP A 277   CB  -  CG  -  OD1 ANGL. DEV. =   6.6 DEGREES          
 500                                                                      
 500 REMARK: NULL                                                         
 500                                                                      
 500 GEOMETRY AND STEREOCHEMISTRY                                         
 500 SUBTOPIC: TORSION ANGLES                                             
 500                                                                      
 500 TORSION ANGLES OUTSIDE THE EXPECTED RAMACHANDRAN REGIONS:            
 500 (M=MODEL NUMBER; RES=RESIDUE NAME; C=CHAIN IDENTIFIER;               
 500 SSEQ=SEQUENCE NUMBER; I=INSERTION CODE).                             
 500                                                                      
 500 STANDARD TABLE:                                                      
 500 FORMAT:(10X,I3,1X,A3,1X,A1,I4,A1,4X,F7.2,3X,F7.2)                    
 500                                                                      
 500 EXPECTED VALUES: GJ KLEYWEGT AND TA JONES (1996). PHI/PSI-           
 500 CHOLOGY: RAMACHANDRAN REVISITED. STRUCTURE 4, 1395 - 1400            
 500                                                                      
 500  M RES CSSEQI        PSI       PHI                                   
 500    CYS A  69     -140.26     50.47                                   
 500    VAL A 103     -136.24   -122.90                                   
 500    ASN A 106       62.21   -156.94                                   
 500    ASN A 106       50.21   -150.67                                   
 500    ASN A 114       -4.29     79.81                                   
 500    ALA A 198      -55.79   -153.85                                   
 500    SER A 220     -129.47    -98.04                                   
 500                                                                      
 500 REMARK: NULL                                                         
 800                                                                      
 800 SITE                                                                 
 800 SITE_IDENTIFIER: AC1                                                 
 800 EVIDENCE_CODE: SOFTWARE                                              
 800 SITE_DESCRIPTION: BINDING SITE FOR RESIDUE SO4 A 1                   
 800                                                                      
 800 SITE_IDENTIFIER: AC2                                                 
 800 EVIDENCE_CODE: SOFTWARE                                              
 800 SITE_DESCRIPTION: BINDING SITE FOR RESIDUE SO4 A 3                   
 800                                                                      
 800 SITE_IDENTIFIER: AC3                                                 
 800 EVIDENCE_CODE: SOFTWARE                                              
 800 SITE_DESCRIPTION: BINDING SITE FOR RESIDUE CEO A 301                 
 800                                                                      
 800 SITE_IDENTIFIER: AC4                                                 
 800 EVIDENCE_CODE: SOFTWARE                                              
 800 SITE_DESCRIPTION: BINDING SITE FOR RESIDUE CLS A 11                  
 800                                                                      
 800 SITE_IDENTIFIER: AC5                                                 
 800 EVIDENCE_CODE: SOFTWARE                                              
 800 SITE_DESCRIPTION: BINDING SITE FOR RESIDUE SPA A 21                  
 900                                                                      
 900 RELATED ENTRIES                                                      
 900 RELATED ID: 2ZQ7   RELATED DB: PDB                                   
 900 APO STRUCTURE OF TOHO-1 E166A/R274N/R276N TRIPLE MUTANT              
 900 RELATED ID: 2ZQ8   RELATED DB: PDB                                   
 900 APO STRUCTURE OF TOHO-1 R274N/R276N DOUBLE MUTANT                    
 900 RELATED ID: 2ZQA   RELATED DB: PDB                                   
 900 CEFOTAXIME ACYL-INTERMEDIATE STRUCTURE OF TOHO-1 E166A/R274N/R276N   
 900 TRIPLE MUTANT                                                        
 900 RELATED ID: 2ZQC   RELATED DB: PDB                                   
 900 AZTREONAM ACYL-INTERMEDIATE STRUCTURE OF TOHO-1 E166A/R274N/R276N    
 900 TRIPLE MUTANT                                                        
 900 RELATED ID: 2ZQD   RELATED DB: PDB                                   
 900 CEFTAZIDIME ACYL-INTERMEDIATE STRUCTURE OF TOHO-1 E166A/R274N/R276N  
 900 TRIPLE MUTANT                                                        

>  <DBREF>
 2ZQ9 A   26   290  UNP    Q47066   BLT1_ECOLX      30    291             

>  <SEQADV>
 2ZQ9 ALA A  166  UNP  Q47066    GLU   169 ENGINEERED MUTATION            
 2ZQ9 ASN A  274  UNP  Q47066    ARG   275 ENGINEERED MUTATION            
 2ZQ9 ASN A  276  UNP  Q47066    ARG   277 ENGINEERED MUTATION            

>  <SEQRES>
   1 A  262  ALA ASN SER VAL GLN GLN GLN LEU GLU ALA LEU GLU LYS          
   2 A  262  SER SER GLY GLY ARG LEU GLY VAL ALA LEU ILE ASN THR          
   3 A  262  ALA ASP ASN SER GLN ILE LEU TYR ARG ALA ASP GLU ARG          
   4 A  262  PHE ALA MET CYS SER THR SER LYS VAL MET ALA ALA ALA          
   5 A  262  ALA VAL LEU LYS GLN SER GLU SER ASP LYS HIS LEU LEU          
   6 A  262  ASN GLN ARG VAL GLU ILE LYS LYS SER ASP LEU VAL ASN          
   7 A  262  TYR ASN PRO ILE ALA GLU LYS HIS VAL ASN GLY THR MET          
   8 A  262  THR LEU ALA GLU LEU GLY ALA ALA ALA LEU GLN TYR SER          
   9 A  262  ASP ASN THR ALA MET ASN LYS LEU ILE ALA HIS LEU GLY          
  10 A  262  GLY PRO ASP LYS VAL THR ALA PHE ALA ARG SER LEU GLY          
  11 A  262  ASP GLU THR PHE ARG LEU ASP ARG THR ALA PRO THR LEU          
  12 A  262  ASN THR ALA ILE PRO GLY ASP PRO ARG ASP THR THR THR          
  13 A  262  PRO LEU ALA MET ALA GLN THR LEU LYS ASN LEU THR LEU          
  14 A  262  GLY LYS ALA LEU ALA GLU THR GLN ARG ALA GLN LEU VAL          
  15 A  262  THR TRP LEU LYS GLY ASN THR THR GLY SER ALA SER ILE          
  16 A  262  ARG ALA GLY LEU PRO LYS SER TRP VAL VAL GLY ASP LYS          
  17 A  262  THR GLY SER GLY ASP TYR GLY THR THR ASN ASP ILE ALA          
  18 A  262  VAL ILE TRP PRO GLU ASN HIS ALA PRO LEU VAL LEU VAL          
  19 A  262  THR TYR PHE THR GLN PRO GLU GLN LYS ALA GLU ASN ARG          
  20 A  262  ASN ASP ILE LEU ALA ALA ALA ALA LYS ILE VAL THR HIS          
  21 A  262  GLY PHE                                                      

>  <HET>
 SO4  A   1       5                                                       
 SO4  A   3       5                                                       
 CEO  A 301      30                                                       
 CLS  A  11      26                                                       
 SPA  A  21       9                                                       

>  <HETNAM>
     SO4 SULFATE ION                                                      
     CEO 5-METHYLENE-2-[2-OXO-1-(2-THIOPHEN-2-YL-ACETYLAMINO)-            
   2 CEO  ETHYL]-5,6-DIHYDRO-2H-[1,3]THIAZINE-4-CARBOXYLIC ACID           
     CLS CEPHALOTHIN                                                      
     SPA THIOPHENEACETIC ACID                                             

>  <HETSYN>
     CEO HYDROLYZED CEPHALOTHIN                                           
     CLS 3-ACETOXYMETHYL-8-OXO-7-(2-THIOPHEN-2-YL-ACETYLAMINO)-           
   2 CLS  5-THIA-1-AZA-BICYCLO[4.2.0]OCT-2-ENE-2-CARBOXYLIC ACID          

>  <FORMUL>
   2  SO4    2(O4 S 2-)                                                   
   4  CEO    C14 H14 N2 O4 S2                                             
   5  CLS    C16 H16 N2 O6 S2                                             
   6  SPA    C6 H6 O2 S                                                   
   7  HOH   *353(H2 O)                                                    

>  <HELIX>
   1   1 SER A   28  GLY A   41  1                                  14    
   2   2 CYS A   69  THR A   71  5                                   3    
   3   3 SER A   72  GLU A   85  1                                  14    
   4   4 LYS A   98  LEU A  102  5                                   5    
   5   5 ILE A  108  VAL A  113  5                                   6    
   6   6 LEU A  119  SER A  130  1                                  12    
   7   7 ASP A  131  GLY A  143  1                                  13    
   8   8 GLY A  144  LEU A  155  1                                  12    
   9   9 PRO A  167  THR A  171  5                                   5    
  10  10 THR A  182  GLY A  196  1                                  15    
  11  11 ALA A  200  GLY A  213  1                                  14    
  12  12 SER A  220  LEU A  225  5                                   6    
  13  13 ARG A  275  THR A  287  1                                  13    

>  <SHEET>
   1   A 5 GLN A  56  TYR A  60  0                                        
   2   A 5 ARG A  43  ASN A  50 -1  N  VAL A  46   O  TYR A  60           
   3   A 5 LEU A 259  THR A 266 -1  O  TYR A 264   N  GLY A  45           
   4   A 5 THR A 243  TRP A 251 -1  N  ILE A 250   O  LEU A 259           
   5   A 5 VAL A 230  GLY A 238 -1  N  VAL A 230   O  TRP A 251           
   1   B 2 PHE A  66  ALA A  67  0                                        
   2   B 2 THR A 180  THR A 181 -1  O  THR A 181   N  PHE A  66           
   1   C 2 ARG A  94  GLU A  96  0                                        
   2   C 2 THR A 116  THR A 118 -1  O  MET A 117   N  VAL A  95           

>  <LINK>
       OG  SER A  70                 C8  CEO A 301     1555   1555  1.35  

>  <CISPEP>
   1 ALA A  166    PRO A  167          0         6.40                     

>  <SITE>
   1 AC1  8 TRP A 229  PRO A 252  GLU A 254  ASN A 255                    
   2 AC1  8 HIS A 256  HOH A 562  HOH A 573  HOH A 589                    
   1 AC2  5 ALA A  52  ARG A 178  HOH A 340  HOH A 364                    
   2 AC2  5 HOH A 428                                                     
   1 AC3 17 CYS A  69  SER A  70  ASN A 104  TYR A 105                    
   2 AC3 17 SER A 130  ASN A 132  PRO A 167  ASN A 170                    
   3 AC3 17 LYS A 234  THR A 235  GLY A 236  SER A 237                    
   4 AC3 17 ASP A 240  HOH A 332  HOH A 381  HOH A 608                    
   5 AC3 17 HOH A 653                                                     
   1 AC4 29 GLY A  41  GLY A  42  LYS A  82  LEU A 155                    
   2 AC4 29 GLY A 196  LYS A 197  ALA A 198  LEU A 199                    
   3 AC4 29 ALA A 200  GLN A 267  PRO A 268  GLU A 273                    
   4 AC4 29 ASN A 274  ARG A 275  ASN A 276  ASP A 277                    
   5 AC4 29 HOH A 334  HOH A 375  HOH A 394  HOH A 399                    
   6 AC4 29 HOH A 402  HOH A 426  HOH A 430  HOH A 440                    
   7 AC4 29 HOH A 443  HOH A 609  HOH A 645  HOH A 650                    
   8 AC4 29 HOH A 651                                                     
   1 AC5 10 GLU A  96  ILE A  97  ASN A 114  GLY A 115                    
   2 AC5 10 ALA A 140  HIS A 141  GLY A 143  HOH A 438                    
   3 AC5 10 HOH A 457  HOH A 461                                          

>  <ORIGX1>
      1.000000  0.000000  0.000000        0.00000                         

>  <ORIGX2>
      0.000000  1.000000  0.000000        0.00000                         

>  <ORIGX3>
      0.000000  0.000000  1.000000        0.00000                         

>  <SCALE1>
      0.013808  0.007972  0.000000        0.00000                         

>  <SCALE2>
      0.000000  0.015944  0.000000        0.00000                         

>  <SCALE3>
      0.000000  0.000000  0.010255        0.00000                         

>  <ANISOU>
  337  N   SER A  70      616    490    632    -49     -7     13       N  
  338  CA  SER A  70      673    486    687    -14    -51     22       C  
  339  C   SER A  70      612    519    557     -6      8     11       C  
  340  O   SER A  70      689    457    648    -11     11     12       O  
  341  CB  SER A  70      583    671    686    -14    -71     13       C  
  342  OG  SER A  70      653    684    752     12   -130    -66       O  
 2091  S1  CEO A 301      939   1472   1076    -89   -342    266       S  
 2092  C2 ACEO A 301     1118   1225    982   -269    -46    -41       C  
 2093  C2 BCEO A 301     1039   1351   1309     34   -194    136       C  
 2094  C3 ACEO A 301      977   1114   1005    -70    -47    -15       C  
 2095  C3 BCEO A 301     1102   1308   1226     -9    -72     83       C  
 2096  C3'ACEO A 301     1372   1546   1224    -13    136     31       C  
 2097  C3'BCEO A 301     1421   1543   1422    -76      4    135       C  
 2098  C4  CEO A 301      931   1219   1190    -38    -82     49       C  
 2099  C4' CEO A 301     1117   1689   1524   -130    201    -34       C  
 2100  O4A CEO A 301      901   2068   1437    -58    -33   -234       O  
 2101  O4B CEO A 301     1728   1951   2677    256     22   -271       O  
 2102  N5  CEO A 301     1076   1568   1088   -275   -205    -19       N  
 2103  C6  CEO A 301      980    898    949    -61   -142     10       C  
 2104  C7  CEO A 301      694    689    867     -6   -132    -87       C  
 2105  C8  CEO A 301      624    716    754     12    -40    -25       C  
 2106  O9  CEO A 301      613    722    920     12   -117   -139       O  
 2107  N10 CEO A 301      747    687    827    -10    -82    -76       N  
 2108  C11 CEO A 301      691    778    922    -40   -128    -61       C  
 2109  O12 CEO A 301      662    854   1014     -3   -147    -84       O  
 2110  C13 CEO A 301      831    911   1291   -112   -127    -85       C  
 2111  C14ACEO A 301      887    846   1106   -134   -104   -158       C  
 2112  C14BCEO A 301     1094   1141   1263   -159    -65    -70       C  
 2113  C15ACEO A 301     1036   1016   1394    -34     -7   -147       C  
 2114  C15BCEO A 301     1316   1205   1439    -92    -23    -48       C  
 2115  C16ACEO A 301      926   1097   1374    -62     89   -121       C  
 2116  C16BCEO A 301     1359   1260   1494    -69     -3    -27       C  
 2117  C17ACEO A 301     1061    865   1306   -172     30   -133       C  
 2118  C17BCEO A 301     1065   1274   1375   -147     -8    -58       C  
 2119  S19ACEO A 301      851    759   1227    -49    -39   -263       S  
 2120  S19BCEO A 301     1147   1280   1504    -93   -107    -94       S  

>  <MASTER>
      340    0    5   13    9    0   20    6 2370    1   76   21          

$$$$
