start_structures/Ligand_Substrate/Ligand_Complex_Stripped/CEP_1IYP.pdb
 OpenBabel08222315203D

 28 29  0  0  1  0  0  0  0  0999 V2000
   42.1060   22.1990   22.5640 N   0  0  0  0  0  0  0  0  0  0  0  0
   40.8230   21.4990   22.5970 C   0  0  2  0  0  0  0  0  0  0  0  0
   39.6570   22.2560   21.9510 C   0  0  0  0  0  0  0  0  0  0  0  0
   38.5730   21.6890   21.8180 O   0  0  0  0  0  0  0  0  0  0  0  0
   40.4120   21.1250   24.0260 C   0  0  0  0  0  0  0  0  0  0  0  0
   41.3380   20.1970   24.6040 O   0  0  0  0  0  0  0  0  0  0  0  0
   42.3260   18.5370   28.8860 S   0  0  0  0  0  0  0  0  0  0  0  0
   40.9090   18.8770   29.9830 C   0  0  0  0  0  0  0  0  0  0  0  0
   40.1150   20.1720   29.8230 C   0  0  0  0  0  0  0  0  0  0  0  0
   39.0960   20.4170   30.6280 C   0  0  0  0  0  0  0  0  0  0  0  0
   40.4730   21.2010   28.7340 C   0  0  0  0  0  0  0  0  0  0  0  0
   39.8690   22.5720   28.5310 C   0  0  0  0  0  0  0  0  0  0  0  0
   38.8070   22.6290   27.8750 O   0  0  0  0  0  0  0  0  0  0  0  0
   40.4600   23.5770   28.9900 O   0  0  0  0  0  0  0  0  0  0  0  0
   41.3870   20.8740   27.8460 N   0  0  0  0  0  0  0  0  0  0  0  0
   41.7460   19.5230   27.4900 C   0  0  1  0  0  0  0  0  0  0  0  0
   42.7730   19.5600   26.3290 C   0  0  1  0  0  0  0  0  0  0  0  0
   42.3480   20.6750   25.3640 C   0  0  0  0  0  0  0  0  0  0  0  0
   42.7770   21.8040   25.2600 O   0  0  0  0  0  0  0  0  0  0  0  0
   44.1240   19.8660   26.8790 N   0  0  0  0  0  0  0  0  0  0  0  0
   45.0670   18.9400   27.1170 C   0  0  0  0  0  0  0  0  0  0  0  0
   44.8890   17.7570   26.8980 O   0  0  0  0  0  0  0  0  0  0  0  0
   46.3350   19.5640   27.6930 C   0  0  0  0  0  0  0  0  0  0  0  0
   47.7210   19.3150   27.1860 C   0  0  0  0  0  0  0  0  0  0  0  0
   48.7770   20.2120   27.3280 C   0  0  0  0  0  0  0  0  0  0  0  0
   49.8830   19.5780   26.6240 C   0  0  0  0  0  0  0  0  0  0  0  0
   49.6760   18.4150   26.1110 C   0  0  0  0  0  0  0  0  0  0  0  0
   48.0990   17.9350   26.3980 S   0  0  0  0  0  0  0  0  0  0  0  0
  2  1  1  1  0  0  0
  2  5  1  0  0  0  0
  3  2  1  0  0  0  0
  4  3  2  0  0  0  0
  5  6  1  0  0  0  0
  6 18  1  0  0  0  0
  7  8  1  0  0  0  0
  7 16  1  0  0  0  0
  8  9  1  0  0  0  0
  9 10  1  0  0  0  0
  9 11  2  0  0  0  0
 11 12  1  0  0  0  0
 11 15  1  0  0  0  0
 12 13  2  0  0  0  0
 12 14  1  0  0  0  0
 15 16  1  0  0  0  0
 16 17  1  6  0  0  0
 17 18  1  6  0  0  0
 17 20  1  0  0  0  0
 18 19  2  0  0  0  0
 20 21  1  0  0  0  0
 21 22  2  0  0  0  0
 21 23  1  0  0  0  0
 23 24  1  0  0  0  0
 24 25  2  0  0  0  0
 24 28  1  0  0  0  0
 25 26  1  0  0  0  0
 26 27  2  0  0  0  0
 27 28  1  0  0  0  0
M  END
>  <HEADER>
    HYDROLASE                               04-SEP-02   1IYP              

>  <TITLE>
    TOHO-1 BETA-LACTAMASE IN COMPLEX WITH CEPHALOTHIN                     

>  <COMPND>
    MOL_ID: 1;                                                            
   2 MOLECULE: TOHO-1 BETA-LACTAMASE;                                     
   3 CHAIN: A;                                                            
   4 EC: 3.5.2.6;                                                         
   5 ENGINEERED: YES;                                                     
   6 MUTATION: YES                                                        

>  <SOURCE>
    MOL_ID: 1;                                                            
   2 ORGANISM_SCIENTIFIC: ESCHERICHIA COLI;                               
   3 ORGANISM_TAXID: 562;                                                 
   4 EXPRESSION_SYSTEM: ESCHERICHIA COLI;                                 
   5 EXPRESSION_SYSTEM_TAXID: 562;                                        
   6 EXPRESSION_SYSTEM_VECTOR_TYPE: PLASMID;                              
   7 EXPRESSION_SYSTEM_PLASMID: PUC119                                    

>  <KEYWDS>
    BETA-LACTAMASE, ACYL-ENZYME, COMPLEX, CEPHALOTHIN, HYDROLASE          

>  <EXPDTA>
    X-RAY DIFFRACTION                                                     

>  <AUTHOR>
    T.SHIMAMURA,A.IBUKA,S.FUSHINOBU,T.WAKAGI,M.ISHIGURO,Y.ISHII,          
   2 H.MATSUZAWA                                                          

>  <REVDAT>
   3   10-NOV-21 1IYP    1       REMARK SEQADV LINK                       
   2   24-FEB-09 1IYP    1       VERSN                                    
   1   11-DEC-02 1IYP    0                                                

>  <JRNL>
      AUTH   T.SHIMAMURA,A.IBUKA,S.FUSHINOBU,T.WAKAGI,M.ISHIGURO,Y.ISHII, 
      AUTH 2 H.MATSUZAWA                                                  
      TITL   ACYL-INTERMEDIATE STRUCTURES OF THE EXTENDED-SPECTRUM CLASS  
      TITL 2 A BETA -LACTAMASE, TOHO-1, IN COMPLEX WITH CEFOTAXIME,       
      TITL 3 CEPHALOTHIN, AND BENZYLPENICILLIN.                           
      REF    J.BIOL.CHEM.                  V. 277 46601 2002              
      REFN                   ISSN 0021-9258                               
      PMID   12221102                                                     
      DOI    10.1074/JBC.M207884200                                       

>  <REMARK>
   2                                                                      
   2 RESOLUTION.    2.00 ANGSTROMS.                                       
   3                                                                      
   3 REFINEMENT.                                                          
   3   PROGRAM     : CNS                                                  
   3   AUTHORS     : BRUNGER,ADAMS,CLORE,DELANO,GROS,GROSSE-              
   3               : KUNSTLEVE,JIANG,KUSZEWSKI,NILGES,PANNU,              
   3               : READ,RICE,SIMONSON,WARREN                            
   3                                                                      
   3  REFINEMENT TARGET : NULL                                            
   3                                                                      
   3  DATA USED IN REFINEMENT.                                            
   3   RESOLUTION RANGE HIGH (ANGSTROMS) : 2.00                           
   3   RESOLUTION RANGE LOW  (ANGSTROMS) : 40.00                          
   3   DATA CUTOFF            (SIGMA(F)) : 3.000                          
   3   DATA CUTOFF HIGH         (ABS(F)) : NULL                           
   3   DATA CUTOFF LOW          (ABS(F)) : NULL                           
   3   COMPLETENESS (WORKING+TEST)   (%) : NULL                           
   3   NUMBER OF REFLECTIONS             : 20985                          
   3                                                                      
   3  FIT TO DATA USED IN REFINEMENT.                                     
   3   CROSS-VALIDATION METHOD          : NULL                            
   3   FREE R VALUE TEST SET SELECTION  : RANDOM                          
   3   R VALUE            (WORKING SET) : 0.199                           
   3   FREE R VALUE                     : 0.245                           
   3   FREE R VALUE TEST SET SIZE   (%) : NULL                            
   3   FREE R VALUE TEST SET COUNT      : NULL                            
   3   ESTIMATED ERROR OF FREE R VALUE  : NULL                            
   3                                                                      
   3  FIT IN THE HIGHEST RESOLUTION BIN.                                  
   3   TOTAL NUMBER OF BINS USED           : NULL                         
   3   BIN RESOLUTION RANGE HIGH       (A) : NULL                         
   3   BIN RESOLUTION RANGE LOW        (A) : NULL                         
   3   BIN COMPLETENESS (WORKING+TEST) (%) : NULL                         
   3   REFLECTIONS IN BIN    (WORKING SET) : NULL                         
   3   BIN R VALUE           (WORKING SET) : NULL                         
   3   BIN FREE R VALUE                    : NULL                         
   3   BIN FREE R VALUE TEST SET SIZE  (%) : NULL                         
   3   BIN FREE R VALUE TEST SET COUNT     : NULL                         
   3   ESTIMATED ERROR OF BIN FREE R VALUE : NULL                         
   3                                                                      
   3  NUMBER OF NON-HYDROGEN ATOMS USED IN REFINEMENT.                    
   3   PROTEIN ATOMS            : 1967                                    
   3   NUCLEIC ACID ATOMS       : 0                                       
   3   HETEROGEN ATOMS          : 37                                      
   3   SOLVENT ATOMS            : 138                                     
   3                                                                      
   3  B VALUES.                                                           
   3   FROM WILSON PLOT           (A**2) : NULL                           
   3   MEAN B VALUE      (OVERALL, A**2) : NULL                           
   3   OVERALL ANISOTROPIC B VALUE.                                       
   3    B11 (A**2) : NULL                                                 
   3    B22 (A**2) : NULL                                                 
   3    B33 (A**2) : NULL                                                 
   3    B12 (A**2) : NULL                                                 
   3    B13 (A**2) : NULL                                                 
   3    B23 (A**2) : NULL                                                 
   3                                                                      
   3  ESTIMATED COORDINATE ERROR.                                         
   3   ESD FROM LUZZATI PLOT        (A) : NULL                            
   3   ESD FROM SIGMAA              (A) : NULL                            
   3   LOW RESOLUTION CUTOFF        (A) : NULL                            
   3                                                                      
   3  CROSS-VALIDATED ESTIMATED COORDINATE ERROR.                         
   3   ESD FROM C-V LUZZATI PLOT    (A) : NULL                            
   3   ESD FROM C-V SIGMAA          (A) : NULL                            
   3                                                                      
   3  RMS DEVIATIONS FROM IDEAL VALUES.                                   
   3   BOND LENGTHS                 (A) : 0.007                           
   3   BOND ANGLES            (DEGREES) : 1.300                           
   3   DIHEDRAL ANGLES        (DEGREES) : NULL                            
   3   IMPROPER ANGLES        (DEGREES) : NULL                            
   3                                                                      
   3  ISOTROPIC THERMAL MODEL : NULL                                      
   3                                                                      
   3  ISOTROPIC THERMAL FACTOR RESTRAINTS.    RMS    SIGMA                
   3   MAIN-CHAIN BOND              (A**2) : NULL  ; NULL                 
   3   MAIN-CHAIN ANGLE             (A**2) : NULL  ; NULL                 
   3   SIDE-CHAIN BOND              (A**2) : NULL  ; NULL                 
   3   SIDE-CHAIN ANGLE             (A**2) : NULL  ; NULL                 
   3                                                                      
   3  BULK SOLVENT MODELING.                                              
   3   METHOD USED : NULL                                                 
   3   KSOL        : NULL                                                 
   3   BSOL        : NULL                                                 
   3                                                                      
   3  NCS MODEL : NULL                                                    
   3                                                                      
   3  NCS RESTRAINTS.                         RMS   SIGMA/WEIGHT          
   3   GROUP  1  POSITIONAL            (A) : NULL  ; NULL                 
   3   GROUP  1  B-FACTOR           (A**2) : NULL  ; NULL                 
   3                                                                      
   3  PARAMETER FILE  1  : NULL                                           
   3  TOPOLOGY FILE  1   : NULL                                           
   3                                                                      
   3  OTHER REFINEMENT REMARKS: NULL                                      
   4                                                                      
   4 1IYP COMPLIES WITH FORMAT V. 3.30, 13-JUL-11                         
 100                                                                      
 100 THIS ENTRY HAS BEEN PROCESSED BY PDBJ ON 05-SEP-02.                  
 100 THE DEPOSITION ID IS D_1000005415.                                   
 200                                                                      
 200 EXPERIMENTAL DETAILS                                                 
 200  EXPERIMENT TYPE                : X-RAY DIFFRACTION                  
 200  DATE OF DATA COLLECTION        : NULL                               
 200  TEMPERATURE           (KELVIN) : NULL                               
 200  PH                             : NULL                               
 200  NUMBER OF CRYSTALS USED        : 1                                  
 200                                                                      
 200  SYNCHROTRON              (Y/N) : Y                                  
 200  RADIATION SOURCE               : PHOTON FACTORY                     
 200  BEAMLINE                       : BL-6A                              
 200  X-RAY GENERATOR MODEL          : NULL                               
 200  MONOCHROMATIC OR LAUE    (M/L) : M                                  
 200  WAVELENGTH OR RANGE        (A) : 1                                  
 200  MONOCHROMATOR                  : NULL                               
 200  OPTICS                         : NULL                               
 200                                                                      
 200  DETECTOR TYPE                  : IMAGE PLATE                        
 200  DETECTOR MANUFACTURER          : FUJI                               
 200  INTENSITY-INTEGRATION SOFTWARE : DENZO                              
 200  DATA SCALING SOFTWARE          : SCALEPACK                          
 200                                                                      
 200  NUMBER OF UNIQUE REFLECTIONS   : 28507                              
 200  RESOLUTION RANGE HIGH      (A) : 1.800                              
 200  RESOLUTION RANGE LOW       (A) : 40.000                             
 200  REJECTION CRITERIA  (SIGMA(I)) : -3.000                             
 200                                                                      
 200 OVERALL.                                                             
 200  COMPLETENESS FOR RANGE     (%) : 96.9                               
 200  DATA REDUNDANCY                : NULL                               
 200  R MERGE                    (I) : 0.05000                            
 200  R SYM                      (I) : NULL                               
 200  <I/SIGMA(I)> FOR THE DATA SET  : NULL                               
 200                                                                      
 200 IN THE HIGHEST RESOLUTION SHELL.                                     
 200  HIGHEST RESOLUTION SHELL, RANGE HIGH (A) : NULL                     
 200  HIGHEST RESOLUTION SHELL, RANGE LOW  (A) : NULL                     
 200  COMPLETENESS FOR SHELL     (%) : NULL                               
 200  DATA REDUNDANCY IN SHELL       : NULL                               
 200  R MERGE FOR SHELL          (I) : NULL                               
 200  R SYM FOR SHELL            (I) : NULL                               
 200  <I/SIGMA(I)> FOR SHELL         : NULL                               
 200                                                                      
 200 DIFFRACTION PROTOCOL: SINGLE WAVELENGTH                              
 200 METHOD USED TO DETERMINE THE STRUCTURE: MOLECULAR REPLACEMENT        
 200 SOFTWARE USED: CNS                                                   
 200 STARTING MODEL: NULL                                                 
 200                                                                      
 200 REMARK: NULL                                                         
 280                                                                      
 280 CRYSTAL                                                              
 280 SOLVENT CONTENT, VS   (%): 52.08                                     
 280 MATTHEWS COEFFICIENT, VM (ANGSTROMS**3/DA): 2.59                     
 280                                                                      
 280 CRYSTALLIZATION CONDITIONS: AMMONIUM SULFATE, VAPOR DIFFUSION,       
 280  HANGING DROP, TEMPERATURE 300K                                      
 290                                                                      
 290 CRYSTALLOGRAPHIC SYMMETRY                                            
 290 SYMMETRY OPERATORS FOR SPACE GROUP: P 32 2 1                         
 290                                                                      
 290      SYMOP   SYMMETRY                                                
 290     NNNMMM   OPERATOR                                                
 290       1555   X,Y,Z                                                   
 290       2555   -Y,X-Y,Z+2/3                                            
 290       3555   -X+Y,-X,Z+1/3                                           
 290       4555   Y,X,-Z                                                  
 290       5555   X-Y,-Y,-Z+1/3                                           
 290       6555   -X,-X+Y,-Z+2/3                                          
 290                                                                      
 290     WHERE NNN -> OPERATOR NUMBER                                     
 290           MMM -> TRANSLATION VECTOR                                  
 290                                                                      
 290 CRYSTALLOGRAPHIC SYMMETRY TRANSFORMATIONS                            
 290 THE FOLLOWING TRANSFORMATIONS OPERATE ON THE ATOM/HETATM             
 290 RECORDS IN THIS ENTRY TO PRODUCE CRYSTALLOGRAPHICALLY                
 290 RELATED MOLECULES.                                                   
 290   SMTRY1   1  1.000000  0.000000  0.000000        0.00000            
 290   SMTRY2   1  0.000000  1.000000  0.000000        0.00000            
 290   SMTRY3   1  0.000000  0.000000  1.000000        0.00000            
 290   SMTRY1   2 -0.500000 -0.866025  0.000000        0.00000            
 290   SMTRY2   2  0.866025 -0.500000  0.000000        0.00000            
 290   SMTRY3   2  0.000000  0.000000  1.000000       66.81933            
 290   SMTRY1   3 -0.500000  0.866025  0.000000        0.00000            
 290   SMTRY2   3 -0.866025 -0.500000  0.000000        0.00000            
 290   SMTRY3   3  0.000000  0.000000  1.000000       33.40967            
 290   SMTRY1   4 -0.500000  0.866025  0.000000        0.00000            
 290   SMTRY2   4  0.866025  0.500000  0.000000        0.00000            
 290   SMTRY3   4  0.000000  0.000000 -1.000000        0.00000            
 290   SMTRY1   5  1.000000  0.000000  0.000000        0.00000            
 290   SMTRY2   5  0.000000 -1.000000  0.000000        0.00000            
 290   SMTRY3   5  0.000000  0.000000 -1.000000       33.40967            
 290   SMTRY1   6 -0.500000 -0.866025  0.000000        0.00000            
 290   SMTRY2   6 -0.866025  0.500000  0.000000        0.00000            
 290   SMTRY3   6  0.000000  0.000000 -1.000000       66.81933            
 290                                                                      
 290 REMARK: NULL                                                         
 300                                                                      
 300 BIOMOLECULE: 1                                                       
 300 SEE REMARK 350 FOR THE AUTHOR PROVIDED AND/OR PROGRAM                
 300 GENERATED ASSEMBLY INFORMATION FOR THE STRUCTURE IN                  
 300 THIS ENTRY. THE REMARK MAY ALSO PROVIDE INFORMATION ON               
 300 BURIED SURFACE AREA.                                                 
 350                                                                      
 350 COORDINATES FOR A COMPLETE MULTIMER REPRESENTING THE KNOWN           
 350 BIOLOGICALLY SIGNIFICANT OLIGOMERIZATION STATE OF THE                
 350 MOLECULE CAN BE GENERATED BY APPLYING BIOMT TRANSFORMATIONS          
 350 GIVEN BELOW.  BOTH NON-CRYSTALLOGRAPHIC AND                          
 350 CRYSTALLOGRAPHIC OPERATIONS ARE GIVEN.                               
 350                                                                      
 350 BIOMOLECULE: 1                                                       
 350 AUTHOR DETERMINED BIOLOGICAL UNIT: MONOMERIC                         
 350 APPLY THE FOLLOWING TO CHAINS: A                                     
 350   BIOMT1   1  1.000000  0.000000  0.000000        0.00000            
 350   BIOMT2   1  0.000000  1.000000  0.000000        0.00000            
 350   BIOMT3   1  0.000000  0.000000  1.000000        0.00000            
 465                                                                      
 465 MISSING RESIDUES                                                     
 465 THE FOLLOWING RESIDUES WERE NOT LOCATED IN THE                       
 465 EXPERIMENT. (M=MODEL NUMBER; RES=RESIDUE NAME; C=CHAIN               
 465 IDENTIFIER; SSSEQ=SEQUENCE NUMBER; I=INSERTION CODE.)                
 465                                                                      
 465   M RES C SSSEQI                                                     
 465     ALA A    26                                                      
 465     ASN A    27                                                      
 500                                                                      
 500 GEOMETRY AND STEREOCHEMISTRY                                         
 500 SUBTOPIC: TORSION ANGLES                                             
 500                                                                      
 500 TORSION ANGLES OUTSIDE THE EXPECTED RAMACHANDRAN REGIONS:            
 500 (M=MODEL NUMBER; RES=RESIDUE NAME; C=CHAIN IDENTIFIER;               
 500 SSEQ=SEQUENCE NUMBER; I=INSERTION CODE).                             
 500                                                                      
 500 STANDARD TABLE:                                                      
 500 FORMAT:(10X,I3,1X,A3,1X,A1,I4,A1,4X,F7.2,3X,F7.2)                    
 500                                                                      
 500 EXPECTED VALUES: GJ KLEYWEGT AND TA JONES (1996). PHI/PSI-           
 500 CHOLOGY: RAMACHANDRAN REVISITED. STRUCTURE 4, 1395 - 1400            
 500                                                                      
 500  M RES CSSEQI        PSI       PHI                                   
 500    ASP A  53       14.23   -140.33                                   
 500    ASN A  54       17.91     57.92                                   
 500    CYS A  69     -141.44     60.63                                   
 500    VAL A 103     -136.43   -112.26                                   
 500    ASN A 106       67.62   -163.01                                   
 500    ASN A 114        1.77     85.08                                   
 500    SER A 220     -128.38    -95.07                                   
 500    ASP A 246      131.73   -170.46                                   
 500                                                                      
 500 REMARK: NULL                                                         
 610                                                                      
 610 MISSING HETEROATOM                                                   
 610 THE FOLLOWING RESIDUES HAVE MISSING ATOMS (M=MODEL NUMBER;           
 610 RES=RESIDUE NAME; C=CHAIN IDENTIFIER; SSEQ=SEQUENCE NUMBER;          
 610 I=INSERTION CODE):                                                   
 610   M RES C SSEQI                                                      
 610     CEP A  301                                                       
 800                                                                      
 800 SITE                                                                 
 800 SITE_IDENTIFIER: AC1                                                 
 800 EVIDENCE_CODE: SOFTWARE                                              
 800 SITE_DESCRIPTION: BINDING SITE FOR RESIDUE SO4 A 401                 
 800                                                                      
 800 SITE_IDENTIFIER: AC2                                                 
 800 EVIDENCE_CODE: SOFTWARE                                              
 800 SITE_DESCRIPTION: BINDING SITE FOR RESIDUE SO4 A 402                 
 800                                                                      
 800 SITE_IDENTIFIER: AC3                                                 
 800 EVIDENCE_CODE: SOFTWARE                                              
 800 SITE_DESCRIPTION: BINDING SITE FOR RESIDUE SO4 A 403                 
 800                                                                      
 800 SITE_IDENTIFIER: AC4                                                 
 800 EVIDENCE_CODE: SOFTWARE                                              
 800 SITE_DESCRIPTION: BINDING SITE FOR RESIDUE CEP A 301                 
 900                                                                      
 900 RELATED ENTRIES                                                      
 900 RELATED ID: 1IYO   RELATED DB: PDB                                   
 900 1IYO CONTAINS CRYSTAL STRUCTURE OF THE SAME PROTEIN COMPLEXED WITH   
 900 CEF AND SO4                                                          
 900 RELATED ID: 1IYQ   RELATED DB: PDB                                   
 900 1IYQ CONTAINS CRYSTAL STRUCTURE OF THE SAME PROTEIN COMPLEXED WITH   
 900 PNM AND SO4                                                          

>  <DBREF>
 1IYP A   26   290  UNP    Q47066   BLT1_ECOLI      30    291             

>  <SEQADV>
 1IYP ALA A  166  UNP  Q47066    GLU   169 ENGINEERED MUTATION            

>  <SEQRES>
   1 A  262  ALA ASN SER VAL GLN GLN GLN LEU GLU ALA LEU GLU LYS          
   2 A  262  SER SER GLY GLY ARG LEU GLY VAL ALA LEU ILE ASN THR          
   3 A  262  ALA ASP ASN SER GLN ILE LEU TYR ARG ALA ASP GLU ARG          
   4 A  262  PHE ALA MET CYS SER THR SER LYS VAL MET ALA ALA ALA          
   5 A  262  ALA VAL LEU LYS GLN SER GLU SER ASP LYS HIS LEU LEU          
   6 A  262  ASN GLN ARG VAL GLU ILE LYS LYS SER ASP LEU VAL ASN          
   7 A  262  TYR ASN PRO ILE ALA GLU LYS HIS VAL ASN GLY THR MET          
   8 A  262  THR LEU ALA GLU LEU GLY ALA ALA ALA LEU GLN TYR SER          
   9 A  262  ASP ASN THR ALA MET ASN LYS LEU ILE ALA HIS LEU GLY          
  10 A  262  GLY PRO ASP LYS VAL THR ALA PHE ALA ARG SER LEU GLY          
  11 A  262  ASP GLU THR PHE ARG LEU ASP ARG THR ALA PRO THR LEU          
  12 A  262  ASN THR ALA ILE PRO GLY ASP PRO ARG ASP THR THR THR          
  13 A  262  PRO LEU ALA MET ALA GLN THR LEU LYS ASN LEU THR LEU          
  14 A  262  GLY LYS ALA LEU ALA GLU THR GLN ARG ALA GLN LEU VAL          
  15 A  262  THR TRP LEU LYS GLY ASN THR THR GLY SER ALA SER ILE          
  16 A  262  ARG ALA GLY LEU PRO LYS SER TRP VAL VAL GLY ASP LYS          
  17 A  262  THR GLY SER GLY ASP TYR GLY THR THR ASN ASP ILE ALA          
  18 A  262  VAL ILE TRP PRO GLU ASN HIS ALA PRO LEU VAL LEU VAL          
  19 A  262  THR TYR PHE THR GLN PRO GLU GLN LYS ALA GLU ARG ARG          
  20 A  262  ARG ASP ILE LEU ALA ALA ALA ALA LYS ILE VAL THR HIS          
  21 A  262  GLY PHE                                                      

>  <HET>
 SO4  A 401       5                                                       
 SO4  A 402       5                                                       
 SO4  A 403       5                                                       
 CEP  A 301      22                                                       

>  <HETNAM>
     SO4 SULFATE ION                                                      
     CEP CEPHALOTHIN GROUP                                                

>  <FORMUL>
   2  SO4    3(O4 S 2-)                                                   
   5  CEP    C16 H18 N2 O6 S2                                             
   6  HOH   *138(H2 O)                                                    

>  <HELIX>
   1   1 SER A   28  GLY A   41  1                                  14    
   2   2 CYS A   69  THR A   71  5                                   3    
   3   3 SER A   72  GLU A   85  1                                  14    
   4   4 HIS A   89  ASN A   92  5                                   4    
   5   5 ALA A  109  VAL A  113  5                                   5    
   6   6 LEU A  119  TYR A  129  1                                  11    
   7   7 ASP A  131  GLY A  143  1                                  13    
   8   8 GLY A  144  LEU A  155  1                                  12    
   9   9 PRO A  167  THR A  171  5                                   5    
  10  10 THR A  182  GLY A  196  1                                  15    
  11  11 ALA A  200  GLY A  213  1                                  14    
  12  12 SER A  220  LEU A  225  5                                   6    
  13  13 ARG A  275  HIS A  288  1                                  14    

>  <SHEET>
   1   A 5 GLN A  56  TYR A  60  0                                        
   2   A 5 ARG A  43  ASN A  50 -1  N  VAL A  46   O  TYR A  60           
   3   A 5 LEU A 259  THR A 266 -1  O  TYR A 264   N  GLY A  45           
   4   A 5 THR A 244  TRP A 251 -1  N  ALA A 248   O  LEU A 261           
   5   A 5 VAL A 230  SER A 237 -1  N  VAL A 230   O  TRP A 251           
   1   B 2 PHE A  66  ALA A  67  0                                        
   2   B 2 THR A 180  THR A 181 -1  O  THR A 181   N  PHE A  66           
   1   C 2 ARG A  94  ILE A  97  0                                        
   2   C 2 GLY A 115  THR A 118 -1  O  MET A 117   N  VAL A  95           

>  <LINK>
       OG  SER A  70                 C8  CEP A 301     1555   1555  1.35  

>  <CISPEP>
   1 ALA A  166    PRO A  167          0        -0.11                     

>  <SITE>
   1 AC1  6 LYS A 197  GLU A 273  ARG A 274  ARG A 276                    
   2 AC1  6 HOH A 508  HOH A 609                                          
   1 AC2  7 LYS A  82  ARG A 276  ASP A 277  HOH A 504                    
   2 AC2  7 HOH A 566  HOH A 609  HOH A 610                               
   1 AC3  6 TRP A 229  PRO A 252  GLU A 254  ASN A 255                    
   2 AC3  6 HIS A 256  PHE A 290                                          
   1 AC4 15 CYS A  69  SER A  70  ASN A 104  TYR A 105                    
   2 AC4 15 SER A 130  ASN A 132  PRO A 167  ASN A 170                    
   3 AC4 15 LYS A 234  THR A 235  GLY A 236  SER A 237                    
   4 AC4 15 GLY A 238  ASP A 240  HOH A 587                               

>  <ORIGX1>
      1.000000  0.000000  0.000000        0.00000                         

>  <ORIGX2>
      0.000000  1.000000  0.000000        0.00000                         

>  <ORIGX3>
      0.000000  0.000000  1.000000        0.00000                         

>  <SCALE1>
      0.013656  0.007884  0.000000        0.00000                         

>  <SCALE2>
      0.000000  0.015768  0.000000        0.00000                         

>  <SCALE3>
      0.000000  0.000000  0.009977        0.00000                         

>  <MASTER>
      282    0    4   13    9    0   10    6 2142    1   38   21          

$$$$
