start_structures/Ligand_Substrate/Ligand_Complex_Stripped/CTB_1FSW.pdb
 OpenBabel08222315203D

 23 24  0  0  1  0  0  0  0  0999 V2000
   26.9640    1.4530   16.1500 N   0  0  0  0  0  0  0  0  0  0  0  0
   28.3140    1.9000   16.4850 C   0  0  2  0  0  0  0  0  0  0  0  0
   29.2190    0.9540   17.2660 C   0  0  0  0  0  0  0  0  0  0  0  0
   30.4090    1.2420   17.4140 O   0  0  0  0  0  0  0  0  0  0  0  0
   28.2590    3.2540   17.1970 C   0  0  0  0  0  0  0  0  0  0  0  0
   28.0160    4.1760   16.1650 O   0  0  0  0  0  0  0  0  0  0  0  0
   26.6470    4.9870   16.4360 B   0  0  0  0  0  0  0  0  0  0  0  0
   25.4890    4.0140   16.5890 O   0  0  0  0  0  0  0  0  0  0  0  0
   26.7990    5.8050   17.6650 O   0  0  0  0  0  0  0  0  0  0  0  0
   26.4140    5.9160   15.2130 C   0  0  0  0  0  0  0  0  0  0  0  0
   25.1870    6.7370   15.3720 N   0  0  0  0  0  0  0  0  0  0  0  0
   24.5250    7.1750   14.2720 C   0  0  0  0  0  0  0  0  0  0  0  0
   24.9200    6.8790   13.1250 O   0  0  0  0  0  0  0  0  0  0  0  0
   23.2610    8.0240   14.4350 C   0  0  0  0  0  0  0  0  0  0  0  0
   22.1300    7.2390   14.6630 C   0  0  0  0  0  0  0  0  0  0  0  0
   21.8250    6.8610   15.9410 C   0  0  0  0  0  0  0  0  0  0  0  0
   21.2510    6.9840   13.6410 C   0  0  0  0  0  0  0  0  0  0  0  0
   20.6920    6.0780   15.9320 C   0  0  0  0  0  0  0  0  0  0  0  0
   20.2320    6.1700   14.1080 C   0  0  0  0  0  0  0  0  0  0  0  0
   20.1970    5.8990   14.6420 C   0  0  0  0  0  0  0  0  0  0  0  0
   20.3980    5.8510   15.4530 C   0  0  0  0  0  0  0  0  0  0  0  0
   21.1100    6.6930   13.3940 S   0  0  0  0  0  0  0  0  0  0  0  0
   21.8070    6.5410   16.1860 S   0  0  0  0  0  0  0  0  0  0  0  0
  2  1  1  1  0  0  0
  2  5  1  0  0  0  0
  2  3  1  0  0  0  0
  3  4  2  0  0  0  0
  6  7  1  0  0  0  0
  6  5  1  0  0  0  0
  7  8  1  0  0  0  0
  7  9  1  0  0  0  0
  7 10  1  0  0  0  0
 10 11  1  0  0  0  0
 11 12  1  0  0  0  0
 12 13  2  0  0  0  0
 12 14  1  0  0  0  0
 14 15  1  0  0  0  0
 15 16  1  0  0  0  0
 15 17  1  0  0  0  0
 15 22  1  0  0  0  0
 15 23  1  0  0  0  0
 16 18  2  0  0  0  0
 17 19  2  0  0  0  0
 18 20  1  0  0  0  0
 19 21  1  0  0  0  0
 20 22  1  0  0  0  0
 21 23  1  0  0  0  0
M  END
>  <HEADER>
    HYDROLASE                               11-SEP-00   1FSW              

>  <TITLE>
    AMPC BETA-LACTAMASE FROM E. COLI COMPLEXED WITH INHIBITOR             
   2 CEPHALOTHINBORONIC ACID                                              

>  <COMPND>
    MOL_ID: 1;                                                            
   2 MOLECULE: CEPHALOSPORINASE;                                          
   3 CHAIN: A, B;                                                         
   4 SYNONYM: BETA-LACTAMASE;                                             
   5 EC: 3.5.2.6;                                                         
   6 ENGINEERED: YES;                                                     
   7 OTHER_DETAILS: SER 64 BINDS TO BORON OF LIGAND CTB IN BOTH CHAINS    

>  <SOURCE>
    MOL_ID: 1;                                                            
   2 ORGANISM_SCIENTIFIC: ESCHERICHIA COLI;                               
   3 ORGANISM_TAXID: 83333;                                               
   4 STRAIN: K12;                                                         
   5 EXPRESSION_SYSTEM: ESCHERICHIA COLI;                                 
   6 EXPRESSION_SYSTEM_TAXID: 562;                                        
   7 EXPRESSION_SYSTEM_VECTOR_TYPE: PLASMID;                              
   8 EXPRESSION_SYSTEM_PLASMID: POGO295                                   

>  <KEYWDS>
    CEPHALOSPORINASE, BETA-LACTAMASE, SERINE HYDROLASE, HYDROLASE         

>  <EXPDTA>
    X-RAY DIFFRACTION                                                     

>  <AUTHOR>
    E.CASELLI,R.A.POWERS,L.C.BLASZCZAK,C.Y.WU,F.PRATI,B.K.SHOICHET        

>  <REVDAT>
   4   13-JUL-11 1FSW    1       VERSN                                    
   3   24-FEB-09 1FSW    1       VERSN                                    
   2   01-APR-03 1FSW    1       JRNL                                     
   1   14-MAR-01 1FSW    0                                                

>  <JRNL>
      AUTH   E.CASELLI,R.A.POWERS,L.C.BLASCZCAK,C.Y.WU,F.PRATI,           
      AUTH 2 B.K.SHOICHET                                                 
      TITL   ENERGETIC, STRUCTURAL, AND ANTIMICROBIAL ANALYSES OF         
      TITL 2 BETA-LACTAM SIDE CHAIN RECOGNITION BY BETA-LACTAMASES.       
      REF    CHEM.BIOL.                    V.   8    17 2001              
      REFN                   ISSN 1074-5521                               
      PMID   11182316                                                     
      DOI    10.1016/S1074-5521(00)00052-1                                

>  <REMARK>
   2                                                                      
   2 RESOLUTION.    1.90 ANGSTROMS.                                       
   3                                                                      
   3 REFINEMENT.                                                          
   3   PROGRAM     : CNS                                                  
   3   AUTHORS     : BRUNGER,ADAMS,CLORE,DELANO,GROS,GROSSE-              
   3               : KUNSTLEVE,JIANG,KUSZEWSKI,NILGES,PANNU,              
   3               : READ,RICE,SIMONSON,WARREN                            
   3                                                                      
   3  REFINEMENT TARGET : ENGH & HUBER                                    
   3                                                                      
   3  DATA USED IN REFINEMENT.                                            
   3   RESOLUTION RANGE HIGH (ANGSTROMS) : 1.90                           
   3   RESOLUTION RANGE LOW  (ANGSTROMS) : 20.00                          
   3   DATA CUTOFF            (SIGMA(F)) : 0.000                          
   3   DATA CUTOFF HIGH         (ABS(F)) : NULL                           
   3   DATA CUTOFF LOW          (ABS(F)) : NULL                           
   3   COMPLETENESS (WORKING+TEST)   (%) : 90.8                           
   3   NUMBER OF REFLECTIONS             : 56806                          
   3                                                                      
   3  FIT TO DATA USED IN REFINEMENT.                                     
   3   CROSS-VALIDATION METHOD          : THROUGHOUT                      
   3   FREE R VALUE TEST SET SELECTION  : RANDOM                          
   3   R VALUE            (WORKING SET) : 0.194                           
   3   FREE R VALUE                     : 0.227                           
   3   FREE R VALUE TEST SET SIZE   (%) : 10.000                          
   3   FREE R VALUE TEST SET COUNT      : 5722                            
   3   ESTIMATED ERROR OF FREE R VALUE  : NULL                            
   3                                                                      
   3  FIT IN THE HIGHEST RESOLUTION BIN.                                  
   3   TOTAL NUMBER OF BINS USED           : NULL                         
   3   BIN RESOLUTION RANGE HIGH       (A) : NULL                         
   3   BIN RESOLUTION RANGE LOW        (A) : NULL                         
   3   BIN COMPLETENESS (WORKING+TEST) (%) : NULL                         
   3   REFLECTIONS IN BIN    (WORKING SET) : NULL                         
   3   BIN R VALUE           (WORKING SET) : NULL                         
   3   BIN FREE R VALUE                    : NULL                         
   3   BIN FREE R VALUE TEST SET SIZE  (%) : NULL                         
   3   BIN FREE R VALUE TEST SET COUNT     : NULL                         
   3   ESTIMATED ERROR OF BIN FREE R VALUE : NULL                         
   3                                                                      
   3  NUMBER OF NON-HYDROGEN ATOMS USED IN REFINEMENT.                    
   3   PROTEIN ATOMS            : 5592                                    
   3   NUCLEIC ACID ATOMS       : 0                                       
   3   HETEROGEN ATOMS          : 31                                      
   3   SOLVENT ATOMS            : 415                                     
   3                                                                      
   3  B VALUES.                                                           
   3   FROM WILSON PLOT           (A**2) : 22.47                          
   3   MEAN B VALUE      (OVERALL, A**2) : NULL                           
   3   OVERALL ANISOTROPIC B VALUE.                                       
   3    B11 (A**2) : NULL                                                 
   3    B22 (A**2) : NULL                                                 
   3    B33 (A**2) : NULL                                                 
   3    B12 (A**2) : NULL                                                 
   3    B13 (A**2) : NULL                                                 
   3    B23 (A**2) : NULL                                                 
   3                                                                      
   3  ESTIMATED COORDINATE ERROR.                                         
   3   ESD FROM LUZZATI PLOT        (A) : NULL                            
   3   ESD FROM SIGMAA              (A) : NULL                            
   3   LOW RESOLUTION CUTOFF        (A) : NULL                            
   3                                                                      
   3  CROSS-VALIDATED ESTIMATED COORDINATE ERROR.                         
   3   ESD FROM C-V LUZZATI PLOT    (A) : NULL                            
   3   ESD FROM C-V SIGMAA          (A) : NULL                            
   3                                                                      
   3  RMS DEVIATIONS FROM IDEAL VALUES.                                   
   3   BOND LENGTHS                 (A) : 0.013                           
   3   BOND ANGLES            (DEGREES) : 1.72                            
   3   DIHEDRAL ANGLES        (DEGREES) : NULL                            
   3   IMPROPER ANGLES        (DEGREES) : 1.03                            
   3                                                                      
   3  ISOTROPIC THERMAL MODEL : NULL                                      
   3                                                                      
   3  ISOTROPIC THERMAL FACTOR RESTRAINTS.    RMS    SIGMA                
   3   MAIN-CHAIN BOND              (A**2) : NULL  ; NULL                 
   3   MAIN-CHAIN ANGLE             (A**2) : NULL  ; NULL                 
   3   SIDE-CHAIN BOND              (A**2) : NULL  ; NULL                 
   3   SIDE-CHAIN ANGLE             (A**2) : NULL  ; NULL                 
   3                                                                      
   3  BULK SOLVENT MODELING.                                              
   3   METHOD USED : NULL                                                 
   3   KSOL        : NULL                                                 
   3   BSOL        : NULL                                                 
   3                                                                      
   3  NCS MODEL : NULL                                                    
   3                                                                      
   3  NCS RESTRAINTS.                         RMS   SIGMA/WEIGHT          
   3   GROUP  1  POSITIONAL            (A) : NULL  ; NULL                 
   3   GROUP  1  B-FACTOR           (A**2) : NULL  ; NULL                 
   3                                                                      
   3  PARAMETER FILE  1  : NULL                                           
   3  TOPOLOGY FILE  1   : NULL                                           
   3                                                                      
   3  OTHER REFINEMENT REMARKS: NULL                                      
   4                                                                      
   4 1FSW COMPLIES WITH FORMAT V. 3.30, 13-JUL-11                         
 100                                                                      
 100 THIS ENTRY HAS BEEN PROCESSED BY RCSB ON 26-SEP-00.                  
 100 THE RCSB ID CODE IS RCSB011872.                                      
 200                                                                      
 200 EXPERIMENTAL DETAILS                                                 
 200  EXPERIMENT TYPE                : X-RAY DIFFRACTION                  
 200  DATE OF DATA COLLECTION        : 16-MAY-00                          
 200  TEMPERATURE           (KELVIN) : 100                                
 200  PH                             : 8.7                                
 200  NUMBER OF CRYSTALS USED        : 1                                  
 200                                                                      
 200  SYNCHROTRON              (Y/N) : Y                                  
 200  RADIATION SOURCE               : APS                                
 200  BEAMLINE                       : 5ID-B                              
 200  X-RAY GENERATOR MODEL          : NULL                               
 200  MONOCHROMATIC OR LAUE    (M/L) : M                                  
 200  WAVELENGTH OR RANGE        (A) : 1.000                              
 200  MONOCHROMATOR                  : NULL                               
 200  OPTICS                         : NULL                               
 200                                                                      
 200  DETECTOR TYPE                  : CCD                                
 200  DETECTOR MANUFACTURER          : MARRESEARCH                        
 200  INTENSITY-INTEGRATION SOFTWARE : DENZO                              
 200  DATA SCALING SOFTWARE          : SCALEPACK                          
 200                                                                      
 200  NUMBER OF UNIQUE REFLECTIONS   : 58505                              
 200  RESOLUTION RANGE HIGH      (A) : 1.900                              
 200  RESOLUTION RANGE LOW       (A) : 20.000                             
 200  REJECTION CRITERIA  (SIGMA(I)) : -3.000                             
 200                                                                      
 200 OVERALL.                                                             
 200  COMPLETENESS FOR RANGE     (%) : 93.6                               
 200  DATA REDUNDANCY                : 3.000                              
 200  R MERGE                    (I) : 0.06300                            
 200  R SYM                      (I) : NULL                               
 200  <I/SIGMA(I)> FOR THE DATA SET  : 14.2000                            
 200                                                                      
 200 IN THE HIGHEST RESOLUTION SHELL.                                     
 200  HIGHEST RESOLUTION SHELL, RANGE HIGH (A) : 1.90                     
 200  HIGHEST RESOLUTION SHELL, RANGE LOW  (A) : 1.94                     
 200  COMPLETENESS FOR SHELL     (%) : 94.5                               
 200  DATA REDUNDANCY IN SHELL       : NULL                               
 200  R MERGE FOR SHELL          (I) : 0.17200                            
 200  R SYM FOR SHELL            (I) : NULL                               
 200  <I/SIGMA(I)> FOR SHELL         : NULL                               
 200                                                                      
 200 DIFFRACTION PROTOCOL: SINGLE WAVELENGTH                              
 200 METHOD USED TO DETERMINE THE STRUCTURE: NULL                         
 200 SOFTWARE USED: CNS                                                   
 200 STARTING MODEL: NULL                                                 
 200                                                                      
 200 REMARK: NULL                                                         
 280                                                                      
 280 CRYSTAL                                                              
 280 SOLVENT CONTENT, VS   (%): 51.66                                     
 280 MATTHEWS COEFFICIENT, VM (ANGSTROMS**3/DA): 2.54                     
 280                                                                      
 280 CRYSTALLIZATION CONDITIONS: 1.7M POTASSIUM PHOSPHATE, 95 UM AMPC,    
 280  586 UM CEPHALOTHINBORONIC ACID, PH 8.7, VAPOR DIFFUSION, HANGING    
 280  DROP, TEMPERATURE 296K                                              
 290                                                                      
 290 CRYSTALLOGRAPHIC SYMMETRY                                            
 290 SYMMETRY OPERATORS FOR SPACE GROUP: C 1 2 1                          
 290                                                                      
 290      SYMOP   SYMMETRY                                                
 290     NNNMMM   OPERATOR                                                
 290       1555   X,Y,Z                                                   
 290       2555   -X,Y,-Z                                                 
 290       3555   X+1/2,Y+1/2,Z                                           
 290       4555   -X+1/2,Y+1/2,-Z                                         
 290                                                                      
 290     WHERE NNN -> OPERATOR NUMBER                                     
 290           MMM -> TRANSLATION VECTOR                                  
 290                                                                      
 290 CRYSTALLOGRAPHIC SYMMETRY TRANSFORMATIONS                            
 290 THE FOLLOWING TRANSFORMATIONS OPERATE ON THE ATOM/HETATM             
 290 RECORDS IN THIS ENTRY TO PRODUCE CRYSTALLOGRAPHICALLY                
 290 RELATED MOLECULES.                                                   
 290   SMTRY1   1  1.000000  0.000000  0.000000        0.00000            
 290   SMTRY2   1  0.000000  1.000000  0.000000        0.00000            
 290   SMTRY3   1  0.000000  0.000000  1.000000        0.00000            
 290   SMTRY1   2 -1.000000  0.000000  0.000000        0.00000            
 290   SMTRY2   2  0.000000  1.000000  0.000000        0.00000            
 290   SMTRY3   2  0.000000  0.000000 -1.000000        0.00000            
 290   SMTRY1   3  1.000000  0.000000  0.000000       59.05500            
 290   SMTRY2   3  0.000000  1.000000  0.000000       38.91450            
 290   SMTRY3   3  0.000000  0.000000  1.000000        0.00000            
 290   SMTRY1   4 -1.000000  0.000000  0.000000       59.05500            
 290   SMTRY2   4  0.000000  1.000000  0.000000       38.91450            
 290   SMTRY3   4  0.000000  0.000000 -1.000000        0.00000            
 290                                                                      
 290 REMARK: NULL                                                         
 300                                                                      
 300 BIOMOLECULE: 1                                                       
 300 SEE REMARK 350 FOR THE AUTHOR PROVIDED AND/OR PROGRAM                
 300 GENERATED ASSEMBLY INFORMATION FOR THE STRUCTURE IN                  
 300 THIS ENTRY. THE REMARK MAY ALSO PROVIDE INFORMATION ON               
 300 BURIED SURFACE AREA.                                                 
 350                                                                      
 350 COORDINATES FOR A COMPLETE MULTIMER REPRESENTING THE KNOWN           
 350 BIOLOGICALLY SIGNIFICANT OLIGOMERIZATION STATE OF THE                
 350 MOLECULE CAN BE GENERATED BY APPLYING BIOMT TRANSFORMATIONS          
 350 GIVEN BELOW.  BOTH NON-CRYSTALLOGRAPHIC AND                          
 350 CRYSTALLOGRAPHIC OPERATIONS ARE GIVEN.                               
 350                                                                      
 350 BIOMOLECULE: 1                                                       
 350 AUTHOR DETERMINED BIOLOGICAL UNIT: DIMERIC                           
 350 APPLY THE FOLLOWING TO CHAINS: A, B                                  
 350   BIOMT1   1  1.000000  0.000000  0.000000        0.00000            
 350   BIOMT2   1  0.000000  1.000000  0.000000        0.00000            
 350   BIOMT3   1  0.000000  0.000000  1.000000        0.00000            
 480                                                                      
 480 ZERO OCCUPANCY ATOM                                                  
 480 THE FOLLOWING RESIDUES HAVE ATOMS MODELED WITH ZERO                  
 480 OCCUPANCY. THE LOCATION AND PROPERTIES OF THESE ATOMS                
 480 MAY NOT BE RELIABLE. (M=MODEL NUMBER; RES=RESIDUE NAME;              
 480 C=CHAIN IDENTIFIER; SSEQ=SEQUENCE NUMBER; I=INSERTION CODE):         
 480   M RES C SSEQI ATOMS                                                
 480     GLU A   21   CG   CD   OE1  OE2                                  
 480     GLN A   22   CG   CD   OE1  NE2                                  
 480     LYS A   37   CG   CD   CE   NZ                                   
 480     LYS A  207   CG   CD   CE   NZ                                   
 480     LYS A  239   CD   CE   NZ                                        
 480     ASN A  244   CG   OD1  ND2                                       
 480     GLN A  249   CG   CD   OE1  NE2                                  
 480     ASP A  281   CB   CG   OD1  OD2                                  
 480     LYS A  290   CE   NZ                                             
 480     ARG A  309   CG   CD   NE   CZ   NH1  NH2                        
 480     LYS B   37   CG   CD   CE   NZ                                   
 480     GLN B   57   CD   OE1  NE2                                       
 480     GLU B   95   CD   OE1  OE2                                       
 480     LYS B   99   CD   CE   NZ                                        
 480     ASP B  123   CG   OD1  OD2                                       
 480     LYS B  126   CB   CG   CD   CE   NZ                              
 480     ASN B  244   CB   CG   OD1  ND2                                  
 480     LYS B  246   CG   CD   CE   NZ                                   
 480     LYS B  290   CD   CE   NZ                                        
 480     GLU B  333   CD   OE1  OE2                                       
 500                                                                      
 500 GEOMETRY AND STEREOCHEMISTRY                                         
 500 SUBTOPIC: TORSION ANGLES                                             
 500                                                                      
 500 TORSION ANGLES OUTSIDE THE EXPECTED RAMACHANDRAN REGIONS:            
 500 (M=MODEL NUMBER; RES=RESIDUE NAME; C=CHAIN IDENTIFIER;               
 500 SSEQ=SEQUENCE NUMBER; I=INSERTION CODE).                             
 500                                                                      
 500 STANDARD TABLE:                                                      
 500 FORMAT:(10X,I3,1X,A3,1X,A1,I4,A1,4X,F7.2,3X,F7.2)                    
 500                                                                      
 500 EXPECTED VALUES: GJ KLEYWEGT AND TA JONES (1996). PHI/PSI-           
 500 CHOLOGY: RAMACHANDRAN REVISITED. STRUCTURE 4, 1395 - 1400            
 500                                                                      
 500  M RES CSSEQI        PSI       PHI                                   
 500    LYS A 126      -59.15   -130.33                                   
 500    SER A 154      -62.95    -96.28                                   
 500    TYR A 221       22.49   -161.57                                   
 500    ALA A 307      117.75    -38.72                                   
 500    ASN A 341       50.17    -98.97                                   
 500    LYS B 126      -74.17   -111.70                                   
 500    VAL B 178      -61.20   -123.02                                   
 500    TYR B 221       27.27   -162.38                                   
 500    ALA B 307      120.07    -39.24                                   
 500    ASN B 341       47.58    -96.29                                   
 500                                                                      
 500 REMARK: NULL                                                         
 500                                                                      
 500 GEOMETRY AND STEREOCHEMISTRY                                         
 500 SUBTOPIC: PLANAR GROUPS                                              
 500                                                                      
 500 PLANAR GROUPS IN THE FOLLOWING RESIDUES HAVE A TOTAL                 
 500 RMS DISTANCE OF ALL ATOMS FROM THE BEST-FIT PLANE                    
 500 BY MORE THAN AN EXPECTED VALUE OF 6*RMSD, WITH AN                    
 500 RMSD 0.02 ANGSTROMS, OR AT LEAST ONE ATOM HAS                        
 500 AN RMSD GREATER THAN THIS VALUE                                      
 500 (M=MODEL NUMBER; RES=RESIDUE NAME; C=CHAIN IDENTIFIER;               
 500 SSEQ=SEQUENCE NUMBER; I=INSERTION CODE).                             
 500                                                                      
 500  M RES CSSEQI        RMS     TYPE                                    
 500    TYR A  45         0.06    SIDE CHAIN                              
 500                                                                      
 500 REMARK: NULL                                                         
 525                                                                      
 525 SOLVENT                                                              
 525                                                                      
 525 THE SOLVENT MOLECULES HAVE CHAIN IDENTIFIERS THAT                    
 525 INDICATE THE POLYMER CHAIN WITH WHICH THEY ARE MOST                  
 525 CLOSELY ASSOCIATED. THE REMARK LISTS ALL THE SOLVENT                 
 525 MOLECULES WHICH ARE MORE THAN 5A AWAY FROM THE                       
 525 NEAREST POLYMER CHAIN (M = MODEL NUMBER;                             
 525 RES=RESIDUE NAME; C=CHAIN IDENTIFIER; SSEQ=SEQUENCE                  
 525 NUMBER; I=INSERTION CODE):                                           
 525                                                                      
 525  M RES CSSEQI                                                        
 525    HOH A 592        DISTANCE =  5.81 ANGSTROMS                       
 525    HOH A 778        DISTANCE =  5.39 ANGSTROMS                       
 525    HOH B 706        DISTANCE =  5.30 ANGSTROMS                       
 800                                                                      
 800 SITE                                                                 
 800 SITE_IDENTIFIER: AC1                                                 
 800 EVIDENCE_CODE: SOFTWARE                                              
 800 SITE_DESCRIPTION: BINDING SITE FOR RESIDUE PO4 A 1                   
 800                                                                      
 800 SITE_IDENTIFIER: AC2                                                 
 800 EVIDENCE_CODE: SOFTWARE                                              
 800 SITE_DESCRIPTION: BINDING SITE FOR RESIDUE CTB A 964                 
 800                                                                      
 800 SITE_IDENTIFIER: AC3                                                 
 800 EVIDENCE_CODE: SOFTWARE                                              
 800 SITE_DESCRIPTION: BINDING SITE FOR RESIDUE CTB B 964                 
 900                                                                      
 900 RELATED ENTRIES                                                      
 900 RELATED ID: 2BLS   RELATED DB: PDB                                   
 900 RELATED ID: 3BLS   RELATED DB: PDB                                   
 900 RELATED ID: 1C3B   RELATED DB: PDB                                   
 900 RELATED ID: 1FSY   RELATED DB: PDB                                   

>  <DBREF>
 1FSW A    4   361  UNP    P00811   AMPC_ECOLI      20    377             
 1FSW B    4   361  UNP    P00811   AMPC_ECOLI      20    377             

>  <SEQRES>
   1 A  358  ALA PRO GLN GLN ILE ASN ASP ILE VAL HIS ARG THR ILE          
   2 A  358  THR PRO LEU ILE GLU GLN GLN LYS ILE PRO GLY MET ALA          
   3 A  358  VAL ALA VAL ILE TYR GLN GLY LYS PRO TYR TYR PHE THR          
   4 A  358  TRP GLY TYR ALA ASP ILE ALA LYS LYS GLN PRO VAL THR          
   5 A  358  GLN GLN THR LEU PHE GLU LEU GLY SER VAL SER LYS THR          
   6 A  358  PHE THR GLY VAL LEU GLY GLY ASP ALA ILE ALA ARG GLY          
   7 A  358  GLU ILE LYS LEU SER ASP PRO THR THR LYS TYR TRP PRO          
   8 A  358  GLU LEU THR ALA LYS GLN TRP ASN GLY ILE THR LEU LEU          
   9 A  358  HIS LEU ALA THR TYR THR ALA GLY GLY LEU PRO LEU GLN          
  10 A  358  VAL PRO ASP GLU VAL LYS SER SER SER ASP LEU LEU ARG          
  11 A  358  PHE TYR GLN ASN TRP GLN PRO ALA TRP ALA PRO GLY THR          
  12 A  358  GLN ARG LEU TYR ALA ASN SER SER ILE GLY LEU PHE GLY          
  13 A  358  ALA LEU ALA VAL LYS PRO SER GLY LEU SER PHE GLU GLN          
  14 A  358  ALA MET GLN THR ARG VAL PHE GLN PRO LEU LYS LEU ASN          
  15 A  358  HIS THR TRP ILE ASN VAL PRO PRO ALA GLU GLU LYS ASN          
  16 A  358  TYR ALA TRP GLY TYR ARG GLU GLY LYS ALA VAL HIS VAL          
  17 A  358  SER PRO GLY ALA LEU ASP ALA GLU ALA TYR GLY VAL LYS          
  18 A  358  SER THR ILE GLU ASP MET ALA ARG TRP VAL GLN SER ASN          
  19 A  358  LEU LYS PRO LEU ASP ILE ASN GLU LYS THR LEU GLN GLN          
  20 A  358  GLY ILE GLN LEU ALA GLN SER ARG TYR TRP GLN THR GLY          
  21 A  358  ASP MET TYR GLN GLY LEU GLY TRP GLU MET LEU ASP TRP          
  22 A  358  PRO VAL ASN PRO ASP SER ILE ILE ASN GLY SER ASP ASN          
  23 A  358  LYS ILE ALA LEU ALA ALA ARG PRO VAL LYS ALA ILE THR          
  24 A  358  PRO PRO THR PRO ALA VAL ARG ALA SER TRP VAL HIS LYS          
  25 A  358  THR GLY ALA THR GLY GLY PHE GLY SER TYR VAL ALA PHE          
  26 A  358  ILE PRO GLU LYS GLU LEU GLY ILE VAL MET LEU ALA ASN          
  27 A  358  LYS ASN TYR PRO ASN PRO ALA ARG VAL ASP ALA ALA TRP          
  28 A  358  GLN ILE LEU ASN ALA LEU ALA                                  
   1 B  358  ALA PRO GLN GLN ILE ASN ASP ILE VAL HIS ARG THR ILE          
   2 B  358  THR PRO LEU ILE GLU GLN GLN LYS ILE PRO GLY MET ALA          
   3 B  358  VAL ALA VAL ILE TYR GLN GLY LYS PRO TYR TYR PHE THR          
   4 B  358  TRP GLY TYR ALA ASP ILE ALA LYS LYS GLN PRO VAL THR          
   5 B  358  GLN GLN THR LEU PHE GLU LEU GLY SER VAL SER LYS THR          
   6 B  358  PHE THR GLY VAL LEU GLY GLY ASP ALA ILE ALA ARG GLY          
   7 B  358  GLU ILE LYS LEU SER ASP PRO THR THR LYS TYR TRP PRO          
   8 B  358  GLU LEU THR ALA LYS GLN TRP ASN GLY ILE THR LEU LEU          
   9 B  358  HIS LEU ALA THR TYR THR ALA GLY GLY LEU PRO LEU GLN          
  10 B  358  VAL PRO ASP GLU VAL LYS SER SER SER ASP LEU LEU ARG          
  11 B  358  PHE TYR GLN ASN TRP GLN PRO ALA TRP ALA PRO GLY THR          
  12 B  358  GLN ARG LEU TYR ALA ASN SER SER ILE GLY LEU PHE GLY          
  13 B  358  ALA LEU ALA VAL LYS PRO SER GLY LEU SER PHE GLU GLN          
  14 B  358  ALA MET GLN THR ARG VAL PHE GLN PRO LEU LYS LEU ASN          
  15 B  358  HIS THR TRP ILE ASN VAL PRO PRO ALA GLU GLU LYS ASN          
  16 B  358  TYR ALA TRP GLY TYR ARG GLU GLY LYS ALA VAL HIS VAL          
  17 B  358  SER PRO GLY ALA LEU ASP ALA GLU ALA TYR GLY VAL LYS          
  18 B  358  SER THR ILE GLU ASP MET ALA ARG TRP VAL GLN SER ASN          
  19 B  358  LEU LYS PRO LEU ASP ILE ASN GLU LYS THR LEU GLN GLN          
  20 B  358  GLY ILE GLN LEU ALA GLN SER ARG TYR TRP GLN THR GLY          
  21 B  358  ASP MET TYR GLN GLY LEU GLY TRP GLU MET LEU ASP TRP          
  22 B  358  PRO VAL ASN PRO ASP SER ILE ILE ASN GLY SER ASP ASN          
  23 B  358  LYS ILE ALA LEU ALA ALA ARG PRO VAL LYS ALA ILE THR          
  24 B  358  PRO PRO THR PRO ALA VAL ARG ALA SER TRP VAL HIS LYS          
  25 B  358  THR GLY ALA THR GLY GLY PHE GLY SER TYR VAL ALA PHE          
  26 B  358  ILE PRO GLU LYS GLU LEU GLY ILE VAL MET LEU ALA ASN          
  27 B  358  LYS ASN TYR PRO ASN PRO ALA ARG VAL ASP ALA ALA TRP          
  28 B  358  GLN ILE LEU ASN ALA LEU ALA                                  

>  <HET>
 PO4  A   1       5                                                       
 CTB  A 964      17                                                       
 CTB  B 964      17                                                       

>  <HETNAM>
     PO4 PHOSPHATE ION                                                    
     CTB N-2-THIOPHEN-2-YL-ACETAMIDE BORONIC ACID                         

>  <FORMUL>
   3  PO4    O4 P 3-                                                      
   4  CTB    2(C7 H10 B N O3 S)                                           
   6  HOH   *415(H2 O)                                                    

>  <HELIX>
   1   1 PRO A    5  LYS A   24  1                                  20    
   2   2 VAL A   65  ARG A   80  1                                  16    
   3   3 THR A   89  TYR A   92  5                                   4    
   4   4 ALA A   98  ASN A  102  5                                   5    
   5   5 THR A  105  THR A  111  1                                   7    
   6   6 SER A  127  TRP A  138  1                                  12    
   7   7 ALA A  151  VAL A  163  1                                  13    
   8   8 SER A  169  VAL A  178  1                                  10    
   9   9 PRO A  192  ASN A  198  5                                   7    
  10  10 LEU A  216  TYR A  221  1                                   6    
  11  11 THR A  226  LYS A  239  1                                  14    
  12  12 PRO A  240  ILE A  243  5                                   4    
  13  13 GLU A  245  GLN A  256  1                                  12    
  14  14 ASN A  279  ASP A  288  1                                  10    
  15  15 ASP A  288  LEU A  293  1                                   6    
  16  16 PRO A  330  LYS A  332  5                                   3    
  17  17 PRO A  345  LEU A  360  1                                  16    
  18  18 PRO B    5  LYS B   24  1                                  20    
  19  19 VAL B   65  ARG B   80  1                                  16    
  20  20 PRO B   88  TRP B   93  1                                   6    
  21  21 ALA B   98  ASN B  102  5                                   5    
  22  22 THR B  105  THR B  111  1                                   7    
  23  23 SER B  127  TRP B  138  1                                  12    
  24  24 ALA B  151  VAL B  163  1                                  13    
  25  25 LYS B  164  GLY B  167  5                                   4    
  26  26 SER B  169  VAL B  178  1                                  10    
  27  27 PRO B  192  ASN B  198  5                                   7    
  28  28 LEU B  216  GLY B  222  1                                   7    
  29  29 THR B  226  LYS B  239  1                                  14    
  30  30 PRO B  240  ILE B  243  5                                   4    
  31  31 GLU B  245  GLN B  256  1                                  12    
  32  32 ASN B  279  SER B  287  1                                   9    
  33  33 ASP B  288  LEU B  293  1                                   6    
  34  34 PRO B  330  GLU B  333  5                                   4    
  35  35 PRO B  345  ALA B  361  1                                  17    

>  <SHEET>
   1   A10 GLN A  52  PRO A  53  0                                        
   2   A10 LYS A  37  ASP A  47 -1  N  ALA A  46   O  GLN A  52           
   3   A10 GLY A  27  TYR A  34 -1  O  MET A  28   N  TRP A  43           
   4   A10 LEU A 334  ALA A 340 -1  O  GLY A 335   N  ILE A  33           
   5   A10 GLY A 323  ILE A 329 -1  N  GLY A 323   O  ALA A 340           
   6   A10 SER A 311  ALA A 318 -1  N  VAL A 313   O  PHE A 328           
   7   A10 GLU A 272  ASP A 275 -1  O  GLU A 272   N  HIS A 314           
   8   A10 MET A 265  GLN A 267 -1  N  TYR A 266   O  MET A 273           
   9   A10 ARG A 258  THR A 262 -1  N  TYR A 259   O  GLN A 267           
  10   A10 LYS A 299  THR A 305 -1  N  LYS A 299   O  GLN A 261           
   1   B 2 PHE A  60  GLU A  61  0                                        
   2   B 2 LYS A 224  SER A 225 -1  O  SER A 225   N  PHE A  60           
   1   C 2 GLN A 147  ARG A 148  0                                        
   2   C 2 ARG A 296  PRO A 297 -1  O  ARG A 296   N  ARG A 148           
   1   D 2 GLY A 202  ARG A 204  0                                        
   2   D 2 LYS A 207  VAL A 209 -1  O  LYS A 207   N  ARG A 204           
   1   E10 GLN B  52  PRO B  53  0                                        
   2   E10 LYS B  37  ASP B  47 -1  N  ALA B  46   O  GLN B  52           
   3   E10 GLY B  27  TYR B  34 -1  N  MET B  28   O  TRP B  43           
   4   E10 LEU B 334  ALA B 340 -1  O  GLY B 335   N  ILE B  33           
   5   E10 PHE B 322  ILE B 329 -1  N  GLY B 323   O  ALA B 340           
   6   E10 SER B 311  THR B 319 -1  N  VAL B 313   O  PHE B 328           
   7   E10 GLU B 272  ASP B 275 -1  O  GLU B 272   N  HIS B 314           
   8   E10 MET B 265  GLN B 267 -1  N  TYR B 266   O  MET B 273           
   9   E10 ARG B 258  THR B 262 -1  N  TYR B 259   O  GLN B 267           
  10   E10 LYS B 299  THR B 305 -1  N  LYS B 299   O  GLN B 261           
   1   F 2 PHE B  60  GLU B  61  0                                        
   2   F 2 LYS B 224  SER B 225 -1  O  SER B 225   N  PHE B  60           
   1   G 2 GLN B 147  ARG B 148  0                                        
   2   G 2 ARG B 296  PRO B 297 -1  O  ARG B 296   N  ARG B 148           
   1   H 2 GLY B 202  ARG B 204  0                                        
   2   H 2 LYS B 207  VAL B 209 -1  O  LYS B 207   N  ARG B 204           

>  <LINK>
       OG  SER A  64                 B   CTB A 964     1555   1555  1.61  
       OG  SER B  64                 B   CTB B 964     1555   1555  1.60  

>  <CISPEP>
   1 TRP A  276    PRO A  277          0         0.42                     
   2 THR A  302    PRO A  303          0        -1.41                     
   3 TRP B  276    PRO B  277          0         2.13                     
   4 THR B  302    PRO B  303          0         0.17                     

>  <SITE>
   1 AC1  3 HIS A 186  HOH A 461  HOH A 518                               
   1 AC2  9 SER A  64  GLN A 120  TYR A 150  ASN A 152                    
   2 AC2  9 ALA A 318  THR A 319  GLY A 320  ASN A 343                    
   3 AC2  9 HOH A 402                                                     
   1 AC3  9 SER B  64  GLN B 120  TYR B 150  ASN B 152                    
   2 AC3  9 ALA B 318  THR B 319  ASN B 343  HOH B 400                    
   3 AC3  9 HOH B 746                                                     

>  <ORIGX1>
      1.000000  0.000000  0.000000        0.00000                         

>  <ORIGX2>
      0.000000  1.000000  0.000000        0.00000                         

>  <ORIGX3>
      0.000000  0.000000  1.000000        0.00000                         

>  <SCALE1>
      0.008470  0.000000  0.004100        0.00000                         

>  <SCALE2>
      0.000000  0.012850  0.000000        0.00000                         

>  <SCALE3>
      0.000000  0.000000  0.011420        0.00000                         

>  <MASTER>
      313    0    3   35   32    0    7    6 6038    2   43   56          

$$$$
