start_structures/Ligand_Substrate/Ligand_Complex_Stripped/CTJ_6Q5F.pdb
 OpenBabel08222315213D

 70 70  0  0  1  0  0  0  0  0999 V2000
    2.1670   22.6950   -1.3400 N   0  0  0  0  0  0  0  0  0  0  0  0
    1.6840   22.3740   -2.6630 C   0  0  2  0  0  0  0  0  0  0  0  0
    1.0200   21.0170   -2.7400 C   0  0  0  0  0  0  0  0  0  0  0  0
    0.2540   20.7980   -3.6790 O   0  0  0  0  0  0  0  0  0  0  0  0
    2.8170   22.4680   -3.6880 C   0  0  0  0  0  0  0  0  0  0  0  0
    3.2960   23.8300   -3.8460 O   0  0  0  0  0  0  0  0  0  0  0  0
    3.0120   22.5930   -1.2190 H   0  0  0  0  0  0  0  0  0  0  0  0
    1.0170   23.0340   -2.9100 H   0  0  0  0  0  0  0  0  0  0  0  0
    3.5540   21.9110   -3.3900 H   0  0  0  0  0  0  0  0  0  0  0  0
    2.4910   22.1500   -4.5440 H   0  0  0  0  0  0  0  0  0  0  0  0
    4.4560   24.0710   -3.1390 C   0  0  0  0  0  0  0  0  0  0  0  0
    4.3590   23.6600   -2.0230 O   0  0  0  0  0  0  0  0  0  0  0  0
    6.5710   26.5450   -5.2440 S   0  0  0  0  0  0  0  0  0  0  0  0
    7.9050   25.9500   -6.2240 C   0  0  0  0  0  0  0  0  0  0  0  0
    8.4620   24.7090   -5.8650 C   0  0  1  0  0  0  0  0  0  0  0  0
    7.5790   23.6160   -4.8830 C   0  0  2  0  0  0  0  0  0  0  0  0
    6.8250   24.4320   -3.9030 N   0  0  0  0  0  0  0  0  0  0  0  0
    5.7750   25.3270   -4.6940 C   0  0  1  0  0  0  0  0  0  0  0  0
    4.7310   25.4940   -3.5360 C   0  0  2  0  0  0  0  0  0  0  0  0
    5.3340   26.2660   -2.4930 N   0  0  0  0  0  0  0  0  0  0  0  0
    5.3010   27.7250   -2.4440 C   0  0  0  0  0  0  0  0  0  0  0  0
    4.7650   28.3830   -3.2590 O   0  0  0  0  0  0  0  0  0  0  0  0
    5.9880   28.4770   -1.3170 C   0  0  0  0  0  0  0  0  0  0  0  0
    7.4610   28.7220   -1.4320 C   0  0  0  0  0  0  0  0  0  0  0  0
    8.3250   28.3060   -2.5210 C   0  0  0  0  0  0  0  0  0  0  0  0
    5.3700   28.9720   -0.3700 N   0  0  0  0  0  0  0  0  0  0  0  0
    9.7290   28.8500   -2.2220 S   0  0  0  0  0  0  0  0  0  0  0  0
    9.6060   29.6550   -0.8840 C   0  0  0  0  0  0  0  0  0  0  0  0
    3.9960   28.8150   -0.2830 O   0  0  0  0  0  0  0  0  0  0  0  0
    3.5750   29.3350    0.9590 C   0  0  0  0  0  0  0  0  0  0  0  0
   10.6760   30.3770   -0.1810 N   0  0  0  0  0  0  0  0  0  0  0  0
    4.7750   29.8750    1.8150 C   0  0  0  0  0  0  0  0  0  0  0  0
    8.2570   29.6020   -0.4180 N   0  0  0  0  0  0  0  0  0  0  0  0
    2.6220   30.5390    0.7720 C   0  0  0  0  0  0  0  0  0  0  0  0
    2.8180   28.0990    1.5530 C   0  0  0  0  0  0  0  0  0  0  0  0
    2.7280   27.8260    2.8110 O   0  0  0  0  0  0  0  0  0  0  0  0
    2.2520   27.3220    0.7160 O   0  0  0  0  0  0  0  0  0  0  0  0
    9.4780   24.0660   -6.7620 C   0  0  0  0  0  0  0  0  0  0  0  0
    8.1970   22.4540   -4.1530 C   0  0  0  0  0  0  0  0  0  0  0  0
    7.4880   21.4810   -3.8320 O   0  0  0  0  0  0  0  0  0  0  0  0
    9.3870   22.4780   -3.7990 O   0  0  0  0  0  0  0  0  0  0  0  0
    4.3510   23.4530   -3.8260 H   0  0  0  0  0  0  0  0  0  0  0  0
    7.5920   25.8800   -7.1390 H   0  0  0  0  0  0  0  0  0  0  0  0
    8.6130   26.6120   -6.1940 H   0  0  0  0  0  0  0  0  0  0  0  0
    6.9370   24.4230   -3.0500 H   0  0  0  0  0  0  0  0  0  0  0  0
    5.3930   24.8170   -5.4260 H   0  0  0  0  0  0  0  0  0  0  0  0
    3.9240   25.9230   -3.8610 H   0  0  0  0  0  0  0  0  0  0  0  0
    5.7530   25.8480   -1.8690 H   0  0  0  0  0  0  0  0  0  0  0  0
    8.0810   27.7800   -3.2470 H   0  0  0  0  0  0  0  0  0  0  0  0
   10.8020   31.2140   -0.3340 H   0  0  0  0  0  0  0  0  0  0  0  0
   11.1760   29.9620    0.3820 H   0  0  0  0  0  0  0  0  0  0  0  0
    4.4640   30.0900    2.7080 H   0  0  0  0  0  0  0  0  0  0  0  0
    5.1360   30.6730    1.3970 H   0  0  0  0  0  0  0  0  0  0  0  0
    5.4660   29.1970    1.8670 H   0  0  0  0  0  0  0  0  0  0  0  0
    1.9450   30.3170    0.1140 H   0  0  0  0  0  0  0  0  0  0  0  0
    3.1290   31.3080    0.4670 H   0  0  0  0  0  0  0  0  0  0  0  0
    2.1950   30.7480    1.6170 H   0  0  0  0  0  0  0  0  0  0  0  0
   10.6470   24.9050   -6.8400 N   0  0  0  0  0  0  0  0  0  0  0  0
    9.1000   23.9530   -7.6480 H   0  0  0  0  0  0  0  0  0  0  0  0
   10.9450   25.5020   -8.0190 C   0  0  0  0  0  0  0  0  0  0  0  0
    9.7250   23.2000   -6.4020 H   0  0  0  0  0  0  0  0  0  0  0  0
   12.0740   26.2910   -8.0960 C   0  0  0  0  0  0  0  0  0  0  0  0
   12.8540   26.4550   -6.9970 C   0  0  0  0  0  0  0  0  0  0  0  0
   12.5530   25.8510   -5.8230 C   0  0  0  0  0  0  0  0  0  0  0  0
   11.4250   25.0600   -5.7380 C   0  0  0  0  0  0  0  0  0  0  0  0
   10.4010   25.3790   -8.7630 H   0  0  0  0  0  0  0  0  0  0  0  0
   12.2950   26.7150   -8.8940 H   0  0  0  0  0  0  0  0  0  0  0  0
   13.6110   26.9910   -7.0530 H   0  0  0  0  0  0  0  0  0  0  0  0
   13.0970   25.9750   -5.0790 H   0  0  0  0  0  0  0  0  0  0  0  0
   11.2040   24.6370   -4.9400 H   0  0  0  0  0  0  0  0  0  0  0  0
  1  7  1  0  0  0  0
  2  8  1  6  0  0  0
  2  1  1  0  0  0  0
  3  2  1  0  0  0  0
  4  3  2  0  0  0  0
  5  9  1  0  0  0  0
  5  2  1  0  0  0  0
 10  5  1  0  0  0  0
 11 12  2  0  0  0  0
 13 18  1  0  0  0  0
 14 44  1  0  0  0  0
 14 15  1  0  0  0  0
 14 13  1  0  0  0  0
 15 38  1  6  0  0  0
 15 16  1  0  0  0  0
 16 39  1  1  0  0  0
 16 17  1  0  0  0  0
 17 45  1  0  0  0  0
 18 46  1  6  0  0  0
 18 17  1  0  0  0  0
 18 19  1  0  0  0  0
 19 47  1  6  0  0  0
 19 11  1  0  0  0  0
 19 20  1  0  0  0  0
 20 21  1  0  0  0  0
 20 48  1  0  0  0  0
 21 23  1  0  0  0  0
 22 21  2  0  0  0  0
 23 26  2  0  0  0  0
 24 23  1  0  0  0  0
 24 33  1  0  0  0  0
 25 27  1  0  0  0  0
 25 24  2  0  0  0  0
 26 29  1  0  0  0  0
 27 28  1  0  0  0  0
 28 33  2  0  0  0  0
 28 31  1  0  0  0  0
 29 30  1  0  0  0  0
 30 35  1  0  0  0  0
 30 32  1  0  0  0  0
 31 51  1  0  0  0  0
 32 54  1  0  0  0  0
 32 52  1  0  0  0  0
 34 30  1  0  0  0  0
 34 57  1  0  0  0  0
 35 36  1  0  0  0  0
 37 35  2  0  0  0  0
 38 61  1  0  0  0  0
 39 40  2  0  0  0  0
 39 41  1  0  0  0  0
 42 11  1  0  0  0  0
 43 14  1  0  0  0  0
 49 25  1  0  0  0  0
 50 31  1  0  0  0  0
 53 32  1  0  0  0  0
 55 34  1  0  0  0  0
 56 34  1  0  0  0  0
 58 38  1  0  0  0  0
 58 65  1  0  0  0  0
 59 38  1  0  0  0  0
 60 58  1  0  0  0  0
 62 60  1  0  0  0  0
 62 63  2  0  0  0  0
 63 64  1  0  0  0  0
 64 65  2  0  0  0  0
 64 69  1  0  0  0  0
 65 70  1  0  0  0  0
 66 60  1  0  0  0  0
 67 62  1  0  0  0  0
 68 63  1  0  0  0  0
M  END
>  <HEADER>
    ANTIBIOTIC                              08-DEC-18   6Q5F              

>  <TITLE>
    OXA-48_P68A-CAZ. EVOLUTIONARY TRADE-OFFS OF OXA-48 MEDIATED           
   2 CEFTAZIDIME-AVIBACTAM RESISTANCE                                     

>  <COMPND>
    MOL_ID: 1;                                                            
   2 MOLECULE: BETA-LACTAMASE;                                            
   3 CHAIN: A, C;                                                         
   4 EC: 3.5.2.6;                                                         
   5 ENGINEERED: YES;                                                     
   6 MUTATION: YES;                                                       
   7 MOL_ID: 2;                                                           
   8 MOLECULE: BETA-LACTAMASE;                                            
   9 CHAIN: B, D;                                                         
  10 EC: 3.5.2.6;                                                         
  11 ENGINEERED: YES;                                                     
  12 MUTATION: YES                                                        

>  <SOURCE>
    MOL_ID: 1;                                                            
   2 ORGANISM_SCIENTIFIC: KLEBSIELLA PNEUMONIAE;                          
   3 ORGANISM_TAXID: 573;                                                 
   4 GENE: BLA OXA-48, BLA_2, BLA_4, BLAOXA-48, KPE71T_00045,             
   5 SAMEA3673128_05462, SAMEA3727643_05844, SAMEA3729690_05506;          
   6 EXPRESSION_SYSTEM: ESCHERICHIA COLI;                                 
   7 EXPRESSION_SYSTEM_TAXID: 562;                                        
   8 MOL_ID: 2;                                                           
   9 ORGANISM_SCIENTIFIC: KLEBSIELLA PNEUMONIAE;                          
  10 ORGANISM_TAXID: 573;                                                 
  11 GENE: BLA OXA-48, BLA_2, BLA_4, BLAOXA-48, KPE71T_00045,             
  12 SAMEA3673128_05462, SAMEA3727643_05844, SAMEA3729690_05506;          
  13 EXPRESSION_SYSTEM: ESCHERICHIA COLI;                                 
  14 EXPRESSION_SYSTEM_TAXID: 562                                         

>  <KEYWDS>
    OXA-48, CEFTAZIDIME, AVIBACTAM, RESISTANCE DEVELOPMENT, EVOLUTION,    
   2 ESCHERICHIA COLI, KLEBSIELLA PNEUMONIAE, CARBAPENEMASE, CARBAPENEM,  
   3 ANTIBIOTIC                                                           

>  <EXPDTA>
    X-RAY DIFFRACTION                                                     

>  <AUTHOR>
    C.FROHLICH,V.SORUM,A.M.THOMASSEN,P.J.JOHNSEN,H.-K.S.LEIROS,           
   2 O.SAMUELSEN                                                          

>  <REVDAT>
   2   02-OCT-19 6Q5F    1       JRNL                                     
   1   20-MAR-19 6Q5F    0                                                

>  <JRNL>
      AUTH   C.FROHLICH,V.SORUM,A.M.THOMASSEN,P.J.JOHNSEN,H.S.LEIROS,     
      AUTH 2 O.SAMUELSEN                                                  
      TITL   OXA-48-MEDIATED CEFTAZIDIME-AVIBACTAM RESISTANCE IS          
      TITL 2 ASSOCIATED WITH EVOLUTIONARY TRADE-OFFS.                     
      REF    MSPHERE                       V.   4       2019              
      REFN                   ESSN 2379-5042                               
      PMID   30918055                                                     
      DOI    10.1128/MSPHERE.00024-19                                     

>  <REMARK>
   2                                                                      
   2 RESOLUTION.    2.50 ANGSTROMS.                                       
   3                                                                      
   3 REFINEMENT.                                                          
   3   PROGRAM     : PHENIX (1.12_2829: ???)                              
   3   AUTHORS     : PAUL ADAMS,PAVEL AFONINE,VINCENT CHEN,IAN            
   3               : DAVIS,KRESHNA GOPAL,RALF GROSSE-KUNSTLEVE,           
   3               : LI-WEI HUNG,ROBERT IMMORMINO,TOM IOERGER,            
   3               : AIRLIE MCCOY,ERIK MCKEE,NIGEL MORIARTY,              
   3               : REETAL PAI,RANDY READ,JANE RICHARDSON,               
   3               : DAVID RICHARDSON,TOD ROMO,JIM SACCHETTINI,           
   3               : NICHOLAS SAUTER,JACOB SMITH,LAURENT                  
   3               : STORONI,TOM TERWILLIGER,PETER ZWART                  
   3                                                                      
   3    REFINEMENT TARGET : ML                                            
   3                                                                      
   3  DATA USED IN REFINEMENT.                                            
   3   RESOLUTION RANGE HIGH (ANGSTROMS) : 2.50                           
   3   RESOLUTION RANGE LOW  (ANGSTROMS) : 24.97                          
   3   MIN(FOBS/SIGMA_FOBS)              : 1.340                          
   3   COMPLETENESS FOR RANGE        (%) : 97.8                           
   3   NUMBER OF REFLECTIONS             : 40955                          
   3                                                                      
   3  FIT TO DATA USED IN REFINEMENT.                                     
   3   R VALUE     (WORKING + TEST SET) : 0.227                           
   3   R VALUE            (WORKING SET) : 0.224                           
   3   FREE R VALUE                     : 0.287                           
   3   FREE R VALUE TEST SET SIZE   (%) : 4.940                           
   3   FREE R VALUE TEST SET COUNT      : 2024                            
   3                                                                      
   3  FIT TO DATA USED IN REFINEMENT (IN BINS).                           
   3   BIN  RESOLUTION RANGE  COMPL.    NWORK NFREE   RWORK  RFREE        
   3     1 24.9742 -  5.9994    0.99     3008   150  0.2097 0.2772        
   3     2  5.9994 -  4.7728    0.93     2705   140  0.1941 0.2269        
   3     3  4.7728 -  4.1727    1.00     2865   141  0.1738 0.2413        
   3     4  4.1727 -  3.7926    0.99     2848   133  0.1795 0.2397        
   3     5  3.7926 -  3.5216    0.99     2805   169  0.2065 0.2513        
   3     6  3.5216 -  3.3144    0.99     2785   154  0.2189 0.3115        
   3     7  3.3144 -  3.1488    0.99     2802   141  0.2459 0.3492        
   3     8  3.1488 -  3.0119    0.99     2776   139  0.2551 0.2898        
   3     9  3.0119 -  2.8962    0.92     2580   158  0.2601 0.3028        
   3    10  2.8962 -  2.7964    0.95     2651   138  0.2615 0.3428        
   3    11  2.7964 -  2.7090    0.99     2760   145  0.2681 0.3632        
   3    12  2.7090 -  2.6317    0.99     2779   142  0.2761 0.3095        
   3    13  2.6317 -  2.5625    0.99     2767   134  0.2946 0.3768        
   3    14  2.5625 -  2.5000    0.99     2800   140  0.2859 0.3430        
   3                                                                      
   3  BULK SOLVENT MODELLING.                                             
   3   METHOD USED        : FLAT BULK SOLVENT MODEL                       
   3   SOLVENT RADIUS     : 1.11                                          
   3   SHRINKAGE RADIUS   : 0.90                                          
   3   K_SOL              : NULL                                          
   3   B_SOL              : NULL                                          
   3                                                                      
   3  ERROR ESTIMATES.                                                    
   3   COORDINATE ERROR (MAXIMUM-LIKELIHOOD BASED)     : 0.320            
   3   PHASE ERROR (DEGREES, MAXIMUM-LIKELIHOOD BASED) : 33.310           
   3                                                                      
   3  B VALUES.                                                           
   3   FROM WILSON PLOT           (A**2) : NULL                           
   3   MEAN B VALUE      (OVERALL, A**2) : NULL                           
   3   OVERALL ANISOTROPIC B VALUE.                                       
   3    B11 (A**2) : NULL                                                 
   3    B22 (A**2) : NULL                                                 
   3    B33 (A**2) : NULL                                                 
   3    B12 (A**2) : NULL                                                 
   3    B13 (A**2) : NULL                                                 
   3    B23 (A**2) : NULL                                                 
   3                                                                      
   3  TWINNING INFORMATION.                                               
   3   FRACTION: NULL                                                     
   3   OPERATOR: NULL                                                     
   3                                                                      
   3  DEVIATIONS FROM IDEAL VALUES.                                       
   3                 RMSD          COUNT                                  
   3   BOND      :  0.014           8056                                  
   3   ANGLE     :  1.263          10884                                  
   3   CHIRALITY :  0.061           1137                                  
   3   PLANARITY :  0.007           1393                                  
   3   DIHEDRAL  : 21.075           4721                                  
   3                                                                      
   3  TLS DETAILS                                                         
   3   NUMBER OF TLS GROUPS  : NULL                                       
   3                                                                      
   3  NCS DETAILS                                                         
   3   NUMBER OF NCS GROUPS : NULL                                        
   3                                                                      
   3  OTHER REFINEMENT REMARKS: NULL                                      
   4                                                                      
   4 6Q5F COMPLIES WITH FORMAT V. 3.30, 13-JUL-11                         
 100                                                                      
 100 THIS ENTRY HAS BEEN PROCESSED BY PDBE ON 10-DEC-18.                  
 100 THE DEPOSITION ID IS D_1200013316.                                   
 200                                                                      
 200 EXPERIMENTAL DETAILS                                                 
 200  EXPERIMENT TYPE                : X-RAY DIFFRACTION                  
 200  DATE OF DATA COLLECTION        : 08-MAY-18                          
 200  TEMPERATURE           (KELVIN) : 100                                
 200  PH                             : NULL                               
 200  NUMBER OF CRYSTALS USED        : 1                                  
 200                                                                      
 200  SYNCHROTRON              (Y/N) : Y                                  
 200  RADIATION SOURCE               : BESSY                              
 200  BEAMLINE                       : 14.2                               
 200  X-RAY GENERATOR MODEL          : NULL                               
 200  MONOCHROMATIC OR LAUE    (M/L) : M                                  
 200  WAVELENGTH OR RANGE        (A) : 0.9184                             
 200  MONOCHROMATOR                  : NULL                               
 200  OPTICS                         : NULL                               
 200                                                                      
 200  DETECTOR TYPE                  : PIXEL                              
 200  DETECTOR MANUFACTURER          : DECTRIS PILATUS 2M                 
 200  INTENSITY-INTEGRATION SOFTWARE : XDS                                
 200  DATA SCALING SOFTWARE          : AIMLESS                            
 200                                                                      
 200  NUMBER OF UNIQUE REFLECTIONS   : 41120                              
 200  RESOLUTION RANGE HIGH      (A) : 2.500                              
 200  RESOLUTION RANGE LOW       (A) : 25.000                             
 200  REJECTION CRITERIA  (SIGMA(I)) : NULL                               
 200                                                                      
 200 OVERALL.                                                             
 200  COMPLETENESS FOR RANGE     (%) : 99.1                               
 200  DATA REDUNDANCY                : 4.500                              
 200  R MERGE                    (I) : 0.17700                            
 200  R SYM                      (I) : NULL                               
 200  <I/SIGMA(I)> FOR THE DATA SET  : 5.1000                             
 200                                                                      
 200 IN THE HIGHEST RESOLUTION SHELL.                                     
 200  HIGHEST RESOLUTION SHELL, RANGE HIGH (A) : 2.50                     
 200  HIGHEST RESOLUTION SHELL, RANGE LOW  (A) : 2.64                     
 200  COMPLETENESS FOR SHELL     (%) : 80.4                               
 200  DATA REDUNDANCY IN SHELL       : NULL                               
 200  R MERGE FOR SHELL          (I) : 0.70500                            
 200  R SYM FOR SHELL            (I) : NULL                               
 200  <I/SIGMA(I)> FOR SHELL         : 1.600                              
 200                                                                      
 200 DIFFRACTION PROTOCOL: SINGLE WAVELENGTH                              
 200 METHOD USED TO DETERMINE THE STRUCTURE: MOLECULAR REPLACEMENT        
 200 SOFTWARE USED: PHASER                                                
 200 STARTING MODEL: 5QB4                                                 
 200                                                                      
 200 REMARK: NULL                                                         
 280                                                                      
 280 CRYSTAL                                                              
 280 SOLVENT CONTENT, VS   (%): 49.65                                     
 280 MATTHEWS COEFFICIENT, VM (ANGSTROMS**3/DA): 2.44                     
 280                                                                      
 280 CRYSTALLIZATION CONDITIONS: 20-30 % POLYETHYLENE GLYCOL MONOMETHYL   
 280  ETHER 5,000 0.1 M BIS-TRIS PROPANE BUFFER PH 6.5-7.5, VAPOR         
 280  DIFFUSION, SITTING DROP, TEMPERATURE 277K                           
 290                                                                      
 290 CRYSTALLOGRAPHIC SYMMETRY                                            
 290 SYMMETRY OPERATORS FOR SPACE GROUP: P 21 21 21                       
 290                                                                      
 290      SYMOP   SYMMETRY                                                
 290     NNNMMM   OPERATOR                                                
 290       1555   X,Y,Z                                                   
 290       2555   -X+1/2,-Y,Z+1/2                                         
 290       3555   -X,Y+1/2,-Z+1/2                                         
 290       4555   X+1/2,-Y+1/2,-Z                                         
 290                                                                      
 290     WHERE NNN -> OPERATOR NUMBER                                     
 290           MMM -> TRANSLATION VECTOR                                  
 290                                                                      
 290 CRYSTALLOGRAPHIC SYMMETRY TRANSFORMATIONS                            
 290 THE FOLLOWING TRANSFORMATIONS OPERATE ON THE ATOM/HETATM             
 290 RECORDS IN THIS ENTRY TO PRODUCE CRYSTALLOGRAPHICALLY                
 290 RELATED MOLECULES.                                                   
 290   SMTRY1   1  1.000000  0.000000  0.000000        0.00000            
 290   SMTRY2   1  0.000000  1.000000  0.000000        0.00000            
 290   SMTRY3   1  0.000000  0.000000  1.000000        0.00000            
 290   SMTRY1   2 -1.000000  0.000000  0.000000       44.99300            
 290   SMTRY2   2  0.000000 -1.000000  0.000000        0.00000            
 290   SMTRY3   2  0.000000  0.000000  1.000000       62.64050            
 290   SMTRY1   3 -1.000000  0.000000  0.000000        0.00000            
 290   SMTRY2   3  0.000000  1.000000  0.000000       52.68450            
 290   SMTRY3   3  0.000000  0.000000 -1.000000       62.64050            
 290   SMTRY1   4  1.000000  0.000000  0.000000       44.99300            
 290   SMTRY2   4  0.000000 -1.000000  0.000000       52.68450            
 290   SMTRY3   4  0.000000  0.000000 -1.000000        0.00000            
 290                                                                      
 290 REMARK: NULL                                                         
 300                                                                      
 300 BIOMOLECULE: 1, 2                                                    
 300 SEE REMARK 350 FOR THE AUTHOR PROVIDED AND/OR PROGRAM                
 300 GENERATED ASSEMBLY INFORMATION FOR THE STRUCTURE IN                  
 300 THIS ENTRY. THE REMARK MAY ALSO PROVIDE INFORMATION ON               
 300 BURIED SURFACE AREA.                                                 
 350                                                                      
 350 COORDINATES FOR A COMPLETE MULTIMER REPRESENTING THE KNOWN           
 350 BIOLOGICALLY SIGNIFICANT OLIGOMERIZATION STATE OF THE                
 350 MOLECULE CAN BE GENERATED BY APPLYING BIOMT TRANSFORMATIONS          
 350 GIVEN BELOW.  BOTH NON-CRYSTALLOGRAPHIC AND                          
 350 CRYSTALLOGRAPHIC OPERATIONS ARE GIVEN.                               
 350                                                                      
 350 BIOMOLECULE: 1                                                       
 350 AUTHOR DETERMINED BIOLOGICAL UNIT: DIMERIC                           
 350 SOFTWARE DETERMINED QUATERNARY STRUCTURE: DIMERIC                    
 350 SOFTWARE USED: PISA                                                  
 350 TOTAL BURIED SURFACE AREA: 2610 ANGSTROM**2                          
 350 SURFACE AREA OF THE COMPLEX: 20830 ANGSTROM**2                       
 350 CHANGE IN SOLVENT FREE ENERGY: -27.0 KCAL/MOL                        
 350 APPLY THE FOLLOWING TO CHAINS: A, B                                  
 350   BIOMT1   1  1.000000  0.000000  0.000000        0.00000            
 350   BIOMT2   1  0.000000  1.000000  0.000000        0.00000            
 350   BIOMT3   1  0.000000  0.000000  1.000000        0.00000            
 350                                                                      
 350 BIOMOLECULE: 2                                                       
 350 AUTHOR DETERMINED BIOLOGICAL UNIT: DIMERIC                           
 350 SOFTWARE DETERMINED QUATERNARY STRUCTURE: DIMERIC                    
 350 SOFTWARE USED: PISA                                                  
 350 TOTAL BURIED SURFACE AREA: 2400 ANGSTROM**2                          
 350 SURFACE AREA OF THE COMPLEX: 20600 ANGSTROM**2                       
 350 CHANGE IN SOLVENT FREE ENERGY: -39.0 KCAL/MOL                        
 350 APPLY THE FOLLOWING TO CHAINS: C, D                                  
 350   BIOMT1   1  1.000000  0.000000  0.000000        0.00000            
 350   BIOMT2   1  0.000000  1.000000  0.000000        0.00000            
 350   BIOMT3   1  0.000000  0.000000  1.000000        0.00000            
 465                                                                      
 465 MISSING RESIDUES                                                     
 465 THE FOLLOWING RESIDUES WERE NOT LOCATED IN THE                       
 465 EXPERIMENT. (M=MODEL NUMBER; RES=RESIDUE NAME; C=CHAIN               
 465 IDENTIFIER; SSSEQ=SEQUENCE NUMBER; I=INSERTION CODE.)                
 465                                                                      
 465   M RES C SSSEQI                                                     
 465     MET A     1                                                      
 465     ARG A     2                                                      
 465     VAL A     3                                                      
 465     LEU A     4                                                      
 465     ALA A     5                                                      
 465     LEU A     6                                                      
 465     SER A     7                                                      
 465     ALA A     8                                                      
 465     VAL A     9                                                      
 465     PHE A    10                                                      
 465     LEU A    11                                                      
 465     VAL A    12                                                      
 465     ALA A    13                                                      
 465     SER A    14                                                      
 465     ILE A    15                                                      
 465     ILE A    16                                                      
 465     GLY A    17                                                      
 465     MET A    18                                                      
 465     PRO A    19                                                      
 465     ALA A    20                                                      
 465     VAL A    21                                                      
 465     ALA A    22                                                      
 465     LYS A    23                                                      
 465     ILE A   149                                                      
 465     SER A   150                                                      
 465     GLY A   151                                                      
 465     ASN A   152                                                      
 465     VAL A   153                                                      
 465     ASP A   154                                                      
 465     SER A   155                                                      
 465     PHE A   156                                                      
 465     TRP A   157                                                      
 465     LEU A   158                                                      
 465     ASP A   159                                                      
 465     GLY A   160                                                      
 465     GLY A   161                                                      
 465     MET B     1                                                      
 465     ARG B     2                                                      
 465     VAL B     3                                                      
 465     LEU B     4                                                      
 465     ALA B     5                                                      
 465     LEU B     6                                                      
 465     SER B     7                                                      
 465     ALA B     8                                                      
 465     VAL B     9                                                      
 465     PHE B    10                                                      
 465     LEU B    11                                                      
 465     VAL B    12                                                      
 465     ALA B    13                                                      
 465     SER B    14                                                      
 465     ILE B    15                                                      
 465     ILE B    16                                                      
 465     GLY B    17                                                      
 465     MET B    18                                                      
 465     PRO B    19                                                      
 465     ALA B    20                                                      
 465     VAL B    21                                                      
 465     ALA B    22                                                      
 465     LYS B    23                                                      
 465     MET C     1                                                      
 465     ARG C     2                                                      
 465     VAL C     3                                                      
 465     LEU C     4                                                      
 465     ALA C     5                                                      
 465     LEU C     6                                                      
 465     SER C     7                                                      
 465     ALA C     8                                                      
 465     VAL C     9                                                      
 465     PHE C    10                                                      
 465     LEU C    11                                                      
 465     VAL C    12                                                      
 465     ALA C    13                                                      
 465     SER C    14                                                      
 465     ILE C    15                                                      
 465     ILE C    16                                                      
 465     GLY C    17                                                      
 465     MET C    18                                                      
 465     PRO C    19                                                      
 465     ALA C    20                                                      
 465     VAL C    21                                                      
 465     ALA C    22                                                      
 465     LYS C    23                                                      
 465     ILE C   149                                                      
 465     SER C   150                                                      
 465     GLY C   151                                                      
 465     ASN C   152                                                      
 465     VAL C   153                                                      
 465     ASP C   154                                                      
 465     SER C   155                                                      
 465     PHE C   156                                                      
 465     TRP C   157                                                      
 465     LEU C   158                                                      
 465     ASP C   159                                                      
 465     GLY C   160                                                      
 465     GLY C   161                                                      
 465     MET D     1                                                      
 465     ARG D     2                                                      
 465     VAL D     3                                                      
 465     LEU D     4                                                      
 465     ALA D     5                                                      
 465     LEU D     6                                                      
 465     SER D     7                                                      
 465     ALA D     8                                                      
 465     VAL D     9                                                      
 465     PHE D    10                                                      
 465     LEU D    11                                                      
 465     VAL D    12                                                      
 465     ALA D    13                                                      
 465     SER D    14                                                      
 465     ILE D    15                                                      
 465     ILE D    16                                                      
 465     GLY D    17                                                      
 465     MET D    18                                                      
 465     PRO D    19                                                      
 465     ALA D    20                                                      
 465     VAL D    21                                                      
 465     ALA D    22                                                      
 465     LYS D    23                                                      
 470                                                                      
 470 MISSING ATOM                                                         
 470 THE FOLLOWING RESIDUES HAVE MISSING ATOMS (M=MODEL NUMBER;           
 470 RES=RESIDUE NAME; C=CHAIN IDENTIFIER; SSEQ=SEQUENCE NUMBER;          
 470 I=INSERTION CODE):                                                   
 470   M RES CSSEQI  ATOMS                                                
 470     GLU C 132    CD   OE1  OE2                                       
 470     LYS C 180    CD   CE   NZ                                        
 470     HIS D 182    ND1  CD2  CE1  NE2                                  
 480                                                                      
 480 ZERO OCCUPANCY ATOM                                                  
 480 THE FOLLOWING RESIDUES HAVE ATOMS MODELED WITH ZERO                  
 480 OCCUPANCY. THE LOCATION AND PROPERTIES OF THESE ATOMS                
 480 MAY NOT BE RELIABLE. (M=MODEL NUMBER; RES=RESIDUE NAME;              
 480 C=CHAIN IDENTIFIER; SSEQ=SEQUENCE NUMBER; I=INSERTION CODE):         
 480   M RES C SSEQI ATOMS                                                
 480     ASP C  230   CG                                                  
 500                                                                      
 500 GEOMETRY AND STEREOCHEMISTRY                                         
 500 SUBTOPIC: CLOSE CONTACTS IN SAME ASYMMETRIC UNIT                     
 500                                                                      
 500 THE FOLLOWING ATOMS ARE IN CLOSE CONTACT.                            
 500                                                                      
 500  ATM1  RES C  SSEQI   ATM2  RES C  SSEQI           DISTANCE          
 500   OG   SER A    70     H    CTJ A   301              1.12            
 500   OG   SER C    70     H    CTJ C   301              1.32            
 500   O    THR A   104     HE2  HIS A   109              1.53            
 500   HD1  HIS C   140     OE1  GLU C   147              1.56            
 500   HG   SER D    70     O    HOH D   406              1.57            
 500   HH   TYR B   211     O    HOH B   403              1.57            
 500   OE2  GLU A   256     HZ1  LYS C   137              1.59            
 500   OD1  ASN C    28     HG   SER C    30              1.59            
 500   OD2  ASP D   230     O    HOH D   401              1.92            
 500   O    HOH C   442     O    HOH C   475              1.97            
 500   O    THR A   243     O    HOH A   401              2.00            
 500   OG   SER C    70     O    CTJ C   301              2.03            
 500   O    HOH B   456     O    HOH B   491              2.04            
 500   O4   PGE A   304     O    HOH A   402              2.04            
 500   OG   SER A    70     O    CTJ A   301              2.12            
 500   OXT  PRO B   265     O    HOH B   401              2.17            
 500   OD2  ASP B   159     O    HOH B   402              2.18            
 500   O    HOH A   412     O    HOH A   469              2.19            
 500   OD1  ASP A   245     O    HOH A   403              2.19            
 500                                                                      
 500 REMARK: NULL                                                         
 500                                                                      
 500 GEOMETRY AND STEREOCHEMISTRY                                         
 500 SUBTOPIC: CLOSE CONTACTS                                             
 500                                                                      
 500 THE FOLLOWING ATOMS THAT ARE RELATED BY CRYSTALLOGRAPHIC             
 500 SYMMETRY ARE IN CLOSE CONTACT.  AN ATOM LOCATED WITHIN 0.15          
 500 ANGSTROMS OF A SYMMETRY RELATED ATOM IS ASSUMED TO BE ON A           
 500 SPECIAL POSITION AND IS, THEREFORE, LISTED IN REMARK 375             
 500 INSTEAD OF REMARK 500.  ATOMS WITH NON-BLANK ALTERNATE               
 500 LOCATION INDICATORS ARE NOT INCLUDED IN THE CALCULATIONS.            
 500                                                                      
 500 DISTANCE CUTOFF:                                                     
 500 2.2 ANGSTROMS FOR CONTACTS NOT INVOLVING HYDROGEN ATOMS              
 500 1.6 ANGSTROMS FOR CONTACTS INVOLVING HYDROGEN ATOMS                  
 500                                                                      
 500  ATM1  RES C  SSEQI   ATM2  RES C  SSEQI  SSYMOP   DISTANCE          
 500   NZ   LYS B    60     OD1  ASP C   143     2554     2.10            
 500                                                                      
 500 REMARK: NULL                                                         
 500                                                                      
 500 GEOMETRY AND STEREOCHEMISTRY                                         
 500 SUBTOPIC: TORSION ANGLES                                             
 500                                                                      
 500 TORSION ANGLES OUTSIDE THE EXPECTED RAMACHANDRAN REGIONS:            
 500 (M=MODEL NUMBER; RES=RESIDUE NAME; C=CHAIN IDENTIFIER;               
 500 SSEQ=SEQUENCE NUMBER; I=INSERTION CODE).                             
 500                                                                      
 500 STANDARD TABLE:                                                      
 500 FORMAT:(10X,I3,1X,A3,1X,A1,I4,A1,4X,F7.2,3X,F7.2)                    
 500                                                                      
 500 EXPECTED VALUES: GJ KLEYWEGT AND TA JONES (1996). PHI/PSI-           
 500 CHOLOGY: RAMACHANDRAN REVISITED. STRUCTURE 4, 1395 - 1400            
 500                                                                      
 500  M RES CSSEQI        PSI       PHI                                   
 500    ALA A  69     -131.40     57.81                                   
 500    ASP A  88     -177.55   -176.74                                   
 500    TYR A 144      -95.13    -72.83                                   
 500    THR A 197      -48.02   -132.80                                   
 500    THR A 243     -105.39    -99.19                                   
 500    SER A 244      -29.02   -178.30                                   
 500    GLU A 261       10.32    -66.17                                   
 500    GLN B  52       52.59     24.24                                   
 500    ASN B  58       91.45   -164.83                                   
 500    ALA B  69     -144.33     53.82                                   
 500    ASN B 106       49.38    -95.62                                   
 500    SER B 118       62.33     32.97                                   
 500    GLU B 147       16.78     57.25                                   
 500    SER B 155        7.03   -155.52                                   
 500    ASP B 159       22.68   -151.72                                   
 500    ASN B 200     -158.97   -147.23                                   
 500    ASN C  58       93.90   -163.05                                   
 500    ALA C  69     -130.81     60.44                                   
 500    ASN C 106       40.22    -92.46                                   
 500    ASN C 146       33.36   -145.93                                   
 500    GLU C 147      101.08    -34.72                                   
 500    GLU C 261       12.58    -69.14                                   
 500    ALA D  69     -142.07     57.07                                   
 500    SER D 150      127.17    -36.69                                   
 500    HIS D 182       73.00    -69.65                                   
 500                                                                      
 500 REMARK: NULL                                                         
 525                                                                      
 525 SOLVENT                                                              
 525                                                                      
 525 THE SOLVENT MOLECULES HAVE CHAIN IDENTIFIERS THAT                    
 525 INDICATE THE POLYMER CHAIN WITH WHICH THEY ARE MOST                  
 525 CLOSELY ASSOCIATED. THE REMARK LISTS ALL THE SOLVENT                 
 525 MOLECULES WHICH ARE MORE THAN 5A AWAY FROM THE                       
 525 NEAREST POLYMER CHAIN (M = MODEL NUMBER;                             
 525 RES=RESIDUE NAME; C=CHAIN IDENTIFIER; SSEQ=SEQUENCE                  
 525 NUMBER; I=INSERTION CODE):                                           
 525                                                                      
 525  M RES CSSEQI                                                        
 525    HOH A 511        DISTANCE =  5.86 ANGSTROMS                       
 800                                                                      
 800 SITE                                                                 
 800 SITE_IDENTIFIER: AC1                                                 
 800 EVIDENCE_CODE: SOFTWARE                                              
 800 SITE_DESCRIPTION: binding site for residue CTJ A 301                 
 800                                                                      
 800 SITE_IDENTIFIER: AC2                                                 
 800 EVIDENCE_CODE: SOFTWARE                                              
 800 SITE_DESCRIPTION: binding site for residue CL A 302                  
 800                                                                      
 800 SITE_IDENTIFIER: AC3                                                 
 800 EVIDENCE_CODE: SOFTWARE                                              
 800 SITE_DESCRIPTION: binding site for residue CL A 303                  
 800                                                                      
 800 SITE_IDENTIFIER: AC4                                                 
 800 EVIDENCE_CODE: SOFTWARE                                              
 800 SITE_DESCRIPTION: binding site for residue PGE A 304                 
 800                                                                      
 800 SITE_IDENTIFIER: AC5                                                 
 800 EVIDENCE_CODE: SOFTWARE                                              
 800 SITE_DESCRIPTION: binding site for residue CL B 301                  
 800                                                                      
 800 SITE_IDENTIFIER: AC6                                                 
 800 EVIDENCE_CODE: SOFTWARE                                              
 800 SITE_DESCRIPTION: binding site for residue CL B 302                  
 800                                                                      
 800 SITE_IDENTIFIER: AC7                                                 
 800 EVIDENCE_CODE: SOFTWARE                                              
 800 SITE_DESCRIPTION: binding site for residue PGE B 303                 
 800                                                                      
 800 SITE_IDENTIFIER: AC8                                                 
 800 EVIDENCE_CODE: SOFTWARE                                              
 800 SITE_DESCRIPTION: binding site for residue CL C 302                  
 800                                                                      
 800 SITE_IDENTIFIER: AC9                                                 
 800 EVIDENCE_CODE: SOFTWARE                                              
 800 SITE_DESCRIPTION: binding site for residue PGE C 303                 
 800                                                                      
 800 SITE_IDENTIFIER: AD1                                                 
 800 EVIDENCE_CODE: SOFTWARE                                              
 800 SITE_DESCRIPTION: binding site for residue PEG C 304                 
 800                                                                      
 800 SITE_IDENTIFIER: AD2                                                 
 800 EVIDENCE_CODE: SOFTWARE                                              
 800 SITE_DESCRIPTION: binding site for residue CL D 301                  
 800                                                                      
 800 SITE_IDENTIFIER: AD3                                                 
 800 EVIDENCE_CODE: SOFTWARE                                              
 800 SITE_DESCRIPTION: binding site for Di-peptide CTJ C 301 and SER C    
 800  70                                                                  
 800                                                                      
 800 SITE_IDENTIFIER: AD4                                                 
 800 EVIDENCE_CODE: SOFTWARE                                              
 800 SITE_DESCRIPTION: binding site for Di-peptide SO4 D 302 and ARG D    
 800  250                                                                 

>  <DBREF>
 6Q5F A    1   265  UNP    Q6XEC0   Q6XEC0_KLEPN     1    265             
 6Q5F B    1   265  UNP    Q6XEC0   Q6XEC0_KLEPN     1    265             
 6Q5F C    1   265  UNP    Q6XEC0   Q6XEC0_KLEPN     1    265             
 6Q5F D    1   265  UNP    Q6XEC0   Q6XEC0_KLEPN     1    265             

>  <SEQADV>
 6Q5F ALA A   68  UNP  Q6XEC0    PRO    68 ENGINEERED MUTATION            
 6Q5F ALA B   68  UNP  Q6XEC0    PRO    68 ENGINEERED MUTATION            
 6Q5F ALA C   68  UNP  Q6XEC0    PRO    68 ENGINEERED MUTATION            
 6Q5F ALA D   68  UNP  Q6XEC0    PRO    68 ENGINEERED MUTATION            

>  <SEQRES>
   1 A  265  MET ARG VAL LEU ALA LEU SER ALA VAL PHE LEU VAL ALA          
   2 A  265  SER ILE ILE GLY MET PRO ALA VAL ALA LYS GLU TRP GLN          
   3 A  265  GLU ASN LYS SER TRP ASN ALA HIS PHE THR GLU HIS LYS          
   4 A  265  SER GLN GLY VAL VAL VAL LEU TRP ASN GLU ASN LYS GLN          
   5 A  265  GLN GLY PHE THR ASN ASN LEU LYS ARG ALA ASN GLN ALA          
   6 A  265  PHE LEU ALA ALA SER THR PHE LYS ILE PRO ASN SER LEU          
   7 A  265  ILE ALA LEU ASP LEU GLY VAL VAL LYS ASP GLU HIS GLN          
   8 A  265  VAL PHE LYS TRP ASP GLY GLN THR ARG ASP ILE ALA THR          
   9 A  265  TRP ASN ARG ASP HIS ASN LEU ILE THR ALA MET LYS TYR          
  10 A  265  SER VAL VAL PRO VAL TYR GLN GLU PHE ALA ARG GLN ILE          
  11 A  265  GLY GLU ALA ARG MET SER LYS MET LEU HIS ALA PHE ASP          
  12 A  265  TYR GLY ASN GLU ASP ILE SER GLY ASN VAL ASP SER PHE          
  13 A  265  TRP LEU ASP GLY GLY ILE ARG ILE SER ALA THR GLU GLN          
  14 A  265  ILE SER PHE LEU ARG LYS LEU TYR HIS ASN LYS LEU HIS          
  15 A  265  VAL SER GLU ARG SER GLN ARG ILE VAL LYS GLN ALA MET          
  16 A  265  LEU THR GLU ALA ASN GLY ASP TYR ILE ILE ARG ALA LYS          
  17 A  265  THR GLY TYR SER THR ARG ILE GLU PRO LYS ILE GLY TRP          
  18 A  265  TRP VAL GLY TRP VAL GLU LEU ASP ASP ASN VAL TRP PHE          
  19 A  265  PHE ALA MET ASN MET ASP MET PRO THR SER ASP GLY LEU          
  20 A  265  GLY LEU ARG GLN ALA ILE THR LYS GLU VAL LEU LYS GLN          
  21 A  265  GLU LYS ILE ILE PRO                                          
   1 B  265  MET ARG VAL LEU ALA LEU SER ALA VAL PHE LEU VAL ALA          
   2 B  265  SER ILE ILE GLY MET PRO ALA VAL ALA LYS GLU TRP GLN          
   3 B  265  GLU ASN LYS SER TRP ASN ALA HIS PHE THR GLU HIS LYS          
   4 B  265  SER GLN GLY VAL VAL VAL LEU TRP ASN GLU ASN LYS GLN          
   5 B  265  GLN GLY PHE THR ASN ASN LEU LYS ARG ALA ASN GLN ALA          
   6 B  265  PHE LEU ALA ALA SER THR PHE KCX ILE PRO ASN SER LEU          
   7 B  265  ILE ALA LEU ASP LEU GLY VAL VAL LYS ASP GLU HIS GLN          
   8 B  265  VAL PHE LYS TRP ASP GLY GLN THR ARG ASP ILE ALA THR          
   9 B  265  TRP ASN ARG ASP HIS ASN LEU ILE THR ALA MET LYS TYR          
  10 B  265  SER VAL VAL PRO VAL TYR GLN GLU PHE ALA ARG GLN ILE          
  11 B  265  GLY GLU ALA ARG MET SER LYS MET LEU HIS ALA PHE ASP          
  12 B  265  TYR GLY ASN GLU ASP ILE SER GLY ASN VAL ASP SER PHE          
  13 B  265  TRP LEU ASP GLY GLY ILE ARG ILE SER ALA THR GLU GLN          
  14 B  265  ILE SER PHE LEU ARG LYS LEU TYR HIS ASN LYS LEU HIS          
  15 B  265  VAL SER GLU ARG SER GLN ARG ILE VAL LYS GLN ALA MET          
  16 B  265  LEU THR GLU ALA ASN GLY ASP TYR ILE ILE ARG ALA LYS          
  17 B  265  THR GLY TYR SER THR ARG ILE GLU PRO LYS ILE GLY TRP          
  18 B  265  TRP VAL GLY TRP VAL GLU LEU ASP ASP ASN VAL TRP PHE          
  19 B  265  PHE ALA MET ASN MET ASP MET PRO THR SER ASP GLY LEU          
  20 B  265  GLY LEU ARG GLN ALA ILE THR LYS GLU VAL LEU LYS GLN          
  21 B  265  GLU LYS ILE ILE PRO                                          
   1 C  265  MET ARG VAL LEU ALA LEU SER ALA VAL PHE LEU VAL ALA          
   2 C  265  SER ILE ILE GLY MET PRO ALA VAL ALA LYS GLU TRP GLN          
   3 C  265  GLU ASN LYS SER TRP ASN ALA HIS PHE THR GLU HIS LYS          
   4 C  265  SER GLN GLY VAL VAL VAL LEU TRP ASN GLU ASN LYS GLN          
   5 C  265  GLN GLY PHE THR ASN ASN LEU LYS ARG ALA ASN GLN ALA          
   6 C  265  PHE LEU ALA ALA SER THR PHE LYS ILE PRO ASN SER LEU          
   7 C  265  ILE ALA LEU ASP LEU GLY VAL VAL LYS ASP GLU HIS GLN          
   8 C  265  VAL PHE LYS TRP ASP GLY GLN THR ARG ASP ILE ALA THR          
   9 C  265  TRP ASN ARG ASP HIS ASN LEU ILE THR ALA MET LYS TYR          
  10 C  265  SER VAL VAL PRO VAL TYR GLN GLU PHE ALA ARG GLN ILE          
  11 C  265  GLY GLU ALA ARG MET SER LYS MET LEU HIS ALA PHE ASP          
  12 C  265  TYR GLY ASN GLU ASP ILE SER GLY ASN VAL ASP SER PHE          
  13 C  265  TRP LEU ASP GLY GLY ILE ARG ILE SER ALA THR GLU GLN          
  14 C  265  ILE SER PHE LEU ARG LYS LEU TYR HIS ASN LYS LEU HIS          
  15 C  265  VAL SER GLU ARG SER GLN ARG ILE VAL LYS GLN ALA MET          
  16 C  265  LEU THR GLU ALA ASN GLY ASP TYR ILE ILE ARG ALA LYS          
  17 C  265  THR GLY TYR SER THR ARG ILE GLU PRO LYS ILE GLY TRP          
  18 C  265  TRP VAL GLY TRP VAL GLU LEU ASP ASP ASN VAL TRP PHE          
  19 C  265  PHE ALA MET ASN MET ASP MET PRO THR SER ASP GLY LEU          
  20 C  265  GLY LEU ARG GLN ALA ILE THR LYS GLU VAL LEU LYS GLN          
  21 C  265  GLU LYS ILE ILE PRO                                          
   1 D  265  MET ARG VAL LEU ALA LEU SER ALA VAL PHE LEU VAL ALA          
   2 D  265  SER ILE ILE GLY MET PRO ALA VAL ALA LYS GLU TRP GLN          
   3 D  265  GLU ASN LYS SER TRP ASN ALA HIS PHE THR GLU HIS LYS          
   4 D  265  SER GLN GLY VAL VAL VAL LEU TRP ASN GLU ASN LYS GLN          
   5 D  265  GLN GLY PHE THR ASN ASN LEU LYS ARG ALA ASN GLN ALA          
   6 D  265  PHE LEU ALA ALA SER THR PHE KCX ILE PRO ASN SER LEU          
   7 D  265  ILE ALA LEU ASP LEU GLY VAL VAL LYS ASP GLU HIS GLN          
   8 D  265  VAL PHE LYS TRP ASP GLY GLN THR ARG ASP ILE ALA THR          
   9 D  265  TRP ASN ARG ASP HIS ASN LEU ILE THR ALA MET LYS TYR          
  10 D  265  SER VAL VAL PRO VAL TYR GLN GLU PHE ALA ARG GLN ILE          
  11 D  265  GLY GLU ALA ARG MET SER LYS MET LEU HIS ALA PHE ASP          
  12 D  265  TYR GLY ASN GLU ASP ILE SER GLY ASN VAL ASP SER PHE          
  13 D  265  TRP LEU ASP GLY GLY ILE ARG ILE SER ALA THR GLU GLN          
  14 D  265  ILE SER PHE LEU ARG LYS LEU TYR HIS ASN LYS LEU HIS          
  15 D  265  VAL SER GLU ARG SER GLN ARG ILE VAL LYS GLN ALA MET          
  16 D  265  LEU THR GLU ALA ASN GLY ASP TYR ILE ILE ARG ALA LYS          
  17 D  265  THR GLY TYR SER THR ARG ILE GLU PRO LYS ILE GLY TRP          
  18 D  265  TRP VAL GLY TRP VAL GLU LEU ASP ASP ASN VAL TRP PHE          
  19 D  265  PHE ALA MET ASN MET ASP MET PRO THR SER ASP GLY LEU          
  20 D  265  GLY LEU ARG GLN ALA ILE THR LYS GLU VAL LEU LYS GLN          
  21 D  265  GLU LYS ILE ILE PRO                                          

>  <MODRES>
 6Q5F KCX B   73  LYS  MODIFIED RESIDUE                                   
 6Q5F KCX D   73  LYS  MODIFIED RESIDUE                                   

>  <HET>
 KCX  B  73      23                                                       
 KCX  D  73      23                                                       
 CTJ  A 301      60                                                       
  CL  A 302       1                                                       
  CL  A 303       1                                                       
 PGE  A 304      24                                                       
  CL  B 301       1                                                       
  CL  B 302       1                                                       
 PGE  B 303      24                                                       
 CTJ  C 301      60                                                       
  CL  C 302       1                                                       
 PGE  C 303      24                                                       
 PEG  C 304      17                                                       
  CL  D 301       1                                                       
 SO4  D 302       5                                                       

>  <HETNAM>
     KCX LYSINE NZ-CARBOXYLIC ACID                                        
     CTJ 1-({(2R)-2-[(1R)-1-{[(2Z)-2-(2-AMINO-1,3-THIAZOL-4-YL)-          
   2 CTJ  2-{[(2-CARBOXYPROPAN-2-YL)OXY]IMINO}ACETYL]AMINO}-2-            
   3 CTJ  OXOETHYL]-4-CARBOXY-3,6-DIHYDRO-2H-1,3-THIAZIN-5-               
   4 CTJ  YL}METHYL)PYRIDINIUM                                            
      CL CHLORIDE ION                                                     
     PGE TRIETHYLENE GLYCOL                                               
     PEG DI(HYDROXYETHYL)ETHER                                            
     SO4 SULFATE ION                                                      

>  <FORMUL>
   2  KCX    2(C7 H14 N2 O4)                                              
   5  CTJ    2(C22 H25 N6 O7 S2 1+)                                       
   6   CL    6(CL 1-)                                                     
   8  PGE    3(C6 H14 O4)                                                 
  15  PEG    C4 H10 O3                                                    
  17  SO4    O4 S 2-                                                      
  18  HOH   *422(H2 O)                                                    

>  <HELIX>
   1 AA1 TRP A   31  HIS A   38  1                                   8    
   2 AA2 ASN A   58  ASN A   63  1                                   6    
   3 AA3 ALA A   69  THR A   71  5                                   3    
   4 AA4 PHE A   72  GLY A   84  1                                  13    
   5 AA5 ILE A  102  ASN A  106  5                                   5    
   6 AA6 ASN A  110  TYR A  117  1                                   8    
   7 AA7 VAL A  119  GLY A  131  1                                  13    
   8 AA8 GLY A  131  PHE A  142  1                                  12    
   9 AA9 ALA A  166  HIS A  178  1                                  13    
  10 AB1 SER A  184  MET A  195  1                                  12    
  11 AB2 SER A  244  LEU A  247  5                                   4    
  12 AB3 GLY A  248  GLU A  261  1                                  14    
  13 AB4 ASN B   28  SER B   30  5                                   3    
  14 AB5 TRP B   31  HIS B   38  1                                   8    
  15 AB6 ASN B   58  ASN B   63  1                                   6    
  16 AB7 ALA B   68  THR B   71  5                                   4    
  17 AB8 PHE B   72  LEU B   83  1                                  12    
  18 AB9 ILE B  102  ASN B  106  5                                   5    
  19 AC1 ASN B  110  TYR B  117  1                                   8    
  20 AC2 VAL B  119  GLY B  131  1                                  13    
  21 AC3 GLY B  131  PHE B  142  1                                  12    
  22 AC4 SER B  155  GLY B  160  1                                   6    
  23 AC5 SER B  165  HIS B  178  1                                  14    
  24 AC6 SER B  184  MET B  195  1                                  12    
  25 AC7 THR B  243  LEU B  247  5                                   5    
  26 AC8 GLY B  248  GLU B  261  1                                  14    
  27 AC9 TRP C   31  GLU C   37  1                                   7    
  28 AD1 ASN C   58  GLN C   64  1                                   7    
  29 AD2 ALA C   69  THR C   71  5                                   3    
  30 AD3 PHE C   72  LEU C   83  1                                  12    
  31 AD4 ILE C  102  ASN C  106  5                                   5    
  32 AD5 ASN C  110  SER C  118  1                                   9    
  33 AD6 VAL C  119  ASP C  143  1                                  25    
  34 AD7 ALA C  166  HIS C  178  1                                  13    
  35 AD8 SER C  184  MET C  195  1                                  12    
  36 AD9 THR C  243  LEU C  247  5                                   5    
  37 AE1 GLY C  248  GLU C  261  1                                  14    
  38 AE2 TRP D   31  HIS D   38  1                                   8    
  39 AE3 LYS D   60  GLN D   64  5                                   5    
  40 AE4 ALA D   68  THR D   71  5                                   4    
  41 AE5 PHE D   72  GLY D   84  1                                  13    
  42 AE6 ILE D  102  ASN D  106  5                                   5    
  43 AE7 ASN D  110  TYR D  117  1                                   8    
  44 AE8 VAL D  119  ASP D  143  1                                  25    
  45 AE9 SER D  155  GLY D  160  1                                   6    
  46 AF1 SER D  165  HIS D  178  1                                  14    
  47 AF2 SER D  184  MET D  195  1                                  12    
  48 AF3 THR D  243  LEU D  247  5                                   5    
  49 AF4 GLY D  248  GLU D  261  1                                  14    

>  <SHEET>
   1 AA1 7 TRP A  25  GLU A  27  0                                        
   2 AA1 7 GLN A  53  THR A  56  1  O  THR A  56   N  GLN A  26           
   3 AA1 7 GLY A  42  ASN A  48 -1  N  LEU A  46   O  PHE A  55           
   4 AA1 7 ASN A 231  ASP A 240 -1  O  ASN A 238   N  VAL A  43           
   5 AA1 7 ILE A 219  LEU A 228 -1  N  LEU A 228   O  ASN A 231           
   6 AA1 7 ILE A 204  SER A 212 -1  N  ILE A 204   O  GLU A 227           
   7 AA1 7 LEU A 196  ALA A 199 -1  N  GLU A 198   O  ILE A 205           
   1 AA2 2 ALA A  65  LEU A  67  0                                        
   2 AA2 2 ARG A 163  SER A 165 -1  O  ILE A 164   N  PHE A  66           
   1 AA3 6 GLN B  53  THR B  56  0                                        
   2 AA3 6 GLY B  42  ASN B  48 -1  N  LEU B  46   O  PHE B  55           
   3 AA3 6 VAL B 232  ASP B 240 -1  O  ASN B 238   N  VAL B  43           
   4 AA3 6 ILE B 219  GLU B 227 -1  N  VAL B 226   O  TRP B 233           
   5 AA3 6 ILE B 204  SER B 212 -1  N  ILE B 204   O  GLU B 227           
   6 AA3 6 LEU B 196  ALA B 199 -1  N  GLU B 198   O  ILE B 205           
   1 AA4 7 TRP C  25  GLU C  27  0                                        
   2 AA4 7 GLN C  53  THR C  56  1  O  GLY C  54   N  GLN C  26           
   3 AA4 7 GLY C  42  ASN C  48 -1  N  LEU C  46   O  PHE C  55           
   4 AA4 7 ASN C 231  ASP C 240 -1  O  ASN C 238   N  VAL C  43           
   5 AA4 7 ILE C 219  LEU C 228 -1  N  VAL C 226   O  TRP C 233           
   6 AA4 7 ILE C 204  SER C 212 -1  N  LYS C 208   O  VAL C 223           
   7 AA4 7 LEU C 196  ALA C 199 -1  N  THR C 197   O  ILE C 205           
   1 AA5 2 ALA C  65  LEU C  67  0                                        
   2 AA5 2 ARG C 163  SER C 165 -1  O  ILE C 164   N  PHE C  66           
   1 AA6 7 TRP D  25  GLU D  27  0                                        
   2 AA6 7 GLN D  53  THR D  56  1  O  THR D  56   N  GLN D  26           
   3 AA6 7 GLY D  42  ASN D  48 -1  N  ASN D  48   O  GLN D  53           
   4 AA6 7 ASN D 231  ASP D 240 -1  O  ASN D 238   N  VAL D  43           
   5 AA6 7 ILE D 219  LEU D 228 -1  N  LEU D 228   O  ASN D 231           
   6 AA6 7 ILE D 204  SER D 212 -1  N  ILE D 204   O  GLU D 227           
   7 AA6 7 LEU D 196  ALA D 199 -1  N  GLU D 198   O  ILE D 205           

>  <LINK>
       OG  SER A  70                 C   CTJ A 301     1555   1555  1.38  
       C   PHE B  72                 N   KCX B  73     1555   1555  1.33  
       C   KCX B  73                 N   ILE B  74     1555   1555  1.34  
       OG  SER C  70                 C   CTJ C 301     1555   1555  1.38  
       C   PHE D  72                 N   KCX D  73     1555   1555  1.33  
       C   KCX D  73                 N   ILE D  74     1555   1555  1.34  
       NH2 ARG D 250                 O1  SO4 D 302     1555   1555  1.31  

>  <CISPEP>
   1 GLU A  216    PRO A  217          0       -11.16                     
   2 GLU B  216    PRO B  217          0        -8.96                     
   3 GLU C  216    PRO C  217          0        -5.56                     
   4 GLU D  216    PRO D  217          0        -5.78                     

>  <SITE>
   1 AC1 13 ALA A  69  SER A  70  ILE A 102  TRP A 105                    
   2 AC1 13 VAL A 120  THR A 209  GLY A 210  TYR A 211                    
   3 AC1 13 SER A 212  THR A 213  ARG A 214  ARG A 250                    
   4 AC1 13 HOH A 435                                                     
   1 AC2  2 ARG A 206  ARG B 206                                          
   1 AC3  6 ASP A  88  GLU A  89  GLN A  91  PHE A  93                    
   2 AC3  6 ASN A 110  LEU A 111                                          
   1 AC4  5 GLU A 132  HOH A 402  HOH A 407  HOH A 462                    
   2 AC4  5 HOH A 466                                                     
   1 AC5  4 PHE B  72  KCX B  73  ASN B  76  TRP B 157                    
   1 AC6  3 SER B 184  ARG B 186  SER B 187                               
   1 AC7  5 ASN B 179  LEU B 181  VAL B 183  GLU B 185                    
   2 AC7  5 GLN B 188                                                     
   1 AC8  2 ARG C 206  ARG D 206                                          
   1 AC9  4 ARG A 128  HOH C 405  HOH C 416  HOH C 432                    
   1 AD1  2 ARG C 214  CTJ C 301                                          
   1 AD2  5 PHE D  72  KCX D  73  ASN D  76  TYR D 123                    
   2 AD2  5 TRP D 157                                                     
   1 AD3 16 ALA C  68  ALA C  69  THR C  71  PHE C  72                    
   2 AD3 16 LYS C  73  TRP C 105  SER C 118  VAL C 120                    
   3 AD3 16 THR C 209  GLY C 210  TYR C 211  SER C 212                    
   4 AD3 16 THR C 213  ARG C 214  ARG C 250  PEG C 304                    
   1 AD4 12 SER D 118  THR D 209  GLY D 210  TYR D 211                    
   2 AD4 12 TRP D 221  MET D 237  LEU D 247  GLY D 248                    
   3 AD4 12 LEU D 249  GLN D 251  ALA D 252  THR D 254                    

>  <ORIGX1>
      1.000000  0.000000  0.000000        0.00000                         

>  <ORIGX2>
      0.000000  1.000000  0.000000        0.00000                         

>  <ORIGX3>
      0.000000  0.000000  1.000000        0.00000                         

>  <SCALE1>
      0.011113  0.000000  0.000000        0.00000                         

>  <SCALE2>
      0.000000  0.009490  0.000000        0.00000                         

>  <SCALE3>
      0.000000  0.000000  0.007982        0.00000                         

>  <MASTER>
      517    0   15   49   31    0   25    6 8260    4  267   84          

$$$$
