start_structures/Ligand_Substrate/Ligand_Complex_Stripped/CVB_1KE0.pdb
 OpenBabel08222315203D

 20 20  0  0  1  0  0  0  0  0999 V2000
   27.3240    1.7030   16.1000 N   0  0  0  0  0  0  0  0  0  0  0  0
   28.6750    2.1760   16.3780 C   0  0  2  0  0  0  0  0  0  0  0  0
   29.6020    1.2040   17.1330 C   0  0  0  0  0  0  0  0  0  0  0  0
   30.8110    1.4080   17.1420 O   0  0  0  0  0  0  0  0  0  0  0  0
   28.6050    3.5210   17.0950 C   0  0  0  0  0  0  0  0  0  0  0  0
   28.2860    4.5250   16.1380 O   0  0  0  0  0  0  0  0  0  0  0  0
   26.7830    5.2470   16.5060 B   0  0  0  0  0  0  0  0  0  0  0  0
   25.8040    4.1980   16.8610 O   0  0  0  0  0  0  0  0  0  0  0  0
   26.9610    6.1880   17.6600 O   0  0  0  0  0  0  0  0  0  0  0  0
   26.2480    6.0170   15.2510 C   0  0  0  0  0  0  0  0  0  0  0  0
   25.8420    5.3060   14.1270 C   0  0  0  0  0  0  0  0  0  0  0  0
   25.3330    5.9500   12.9990 C   0  0  0  0  0  0  0  0  0  0  0  0
   25.2360    7.3750   13.0170 C   0  0  0  0  0  0  0  0  0  0  0  0
   24.7100    8.1480   11.8870 C   0  0  0  0  0  0  0  0  0  0  0  0
   24.2680    7.5960   10.7340 C   0  0  0  0  0  0  0  0  0  0  0  0
   23.7670    8.4730    9.6810 C   0  0  0  0  0  0  0  0  0  0  0  0
   24.4540    8.6260    8.5410 O   0  0  0  0  0  0  0  0  0  0  0  0
   22.7100    9.0930    9.8470 O   0  0  0  0  0  0  0  0  0  0  0  0
   25.6640    8.0650   14.1790 C   0  0  0  0  0  0  0  0  0  0  0  0
   26.1540    7.3880   15.2580 C   0  0  0  0  0  0  0  0  0  0  0  0
  2  1  1  1  0  0  0
  2  5  1  0  0  0  0
  2  3  1  0  0  0  0
  3  4  2  0  0  0  0
  6  7  1  0  0  0  0
  6  5  1  0  0  0  0
  7  8  1  0  0  0  0
  7  9  1  0  0  0  0
  7 10  1  0  0  0  0
 10 11  2  0  0  0  0
 10 20  1  0  0  0  0
 11 12  1  0  0  0  0
 12 13  2  0  0  0  0
 13 14  1  0  0  0  0
 13 19  1  0  0  0  0
 14 15  2  0  0  0  0
 15 16  1  0  0  0  0
 16 17  2  0  0  0  0
 16 18  1  0  0  0  0
 19 20  2  0  0  0  0
M  END
>  <HEADER>
    HYDROLASE                               13-NOV-01   1KE0              

>  <TITLE>
    X-RAY CRYSTAL STRUCTURE OF AMPC BETA-LACTAMASE FROM E. COLI IN COMPLEX
   2 WITH THE INHIBITOR 4-(CARBOXYVIN-2-YL)PHENYLBORONIC ACID             

>  <COMPND>
    MOL_ID: 1;                                                            
   2 MOLECULE: BETA-LACTAMASE;                                            
   3 CHAIN: A, B;                                                         
   4 SYNONYM: CEPHALOSPORINASE;                                           
   5 EC: 3.5.2.6;                                                         
   6 ENGINEERED: YES                                                      

>  <SOURCE>
    MOL_ID: 1;                                                            
   2 ORGANISM_SCIENTIFIC: ESCHERICHIA COLI;                               
   3 ORGANISM_TAXID: 562;                                                 
   4 GENE: K12;                                                           
   5 EXPRESSION_SYSTEM: ESCHERICHIA COLI;                                 
   6 EXPRESSION_SYSTEM_TAXID: 562;                                        
   7 EXPRESSION_SYSTEM_STRAIN: JM109;                                     
   8 EXPRESSION_SYSTEM_VECTOR_TYPE: PLASMID;                              
   9 EXPRESSION_SYSTEM_PLASMID: POGO295                                   

>  <KEYWDS>
    CEPHALOSPORINASE, BETA-LACTAMASE, SERINE HYDROLASE, PHENYLBORONIC     
   2 ACID, HYDROLASE                                                      

>  <EXPDTA>
    X-RAY DIFFRACTION                                                     

>  <AUTHOR>
    R.A.POWERS,B.K.SHOICHET                                               

>  <REVDAT>
   3   16-AUG-23 1KE0    1       REMARK LINK                              
   2   24-FEB-09 1KE0    1       VERSN                                    
   1   17-JUL-02 1KE0    0                                                

>  <JRNL>
      AUTH   R.A.POWERS,B.K.SHOICHET                                      
      TITL   STRUCTURE-BASED APPROACH FOR BINDING SITE IDENTIFICATION ON  
      TITL 2 AMPC BETA-LACTAMASE.                                         
      REF    J.MED.CHEM.                   V.  45  3222 2002              
      REFN                   ISSN 0022-2623                               
      PMID   12109906                                                     
      DOI    10.1021/JM020002P                                            

>  <REMARK>
   2                                                                      
   2 RESOLUTION.    2.30 ANGSTROMS.                                       
   3                                                                      
   3 REFINEMENT.                                                          
   3   PROGRAM     : CNS 1.0                                              
   3   AUTHORS     : BRUNGER,ADAMS,CLORE,DELANO,GROS,GROSSE-              
   3               : KUNSTLEVE,JIANG,KUSZEWSKI,NILGES,PANNU,              
   3               : READ,RICE,SIMONSON,WARREN                            
   3                                                                      
   3  REFINEMENT TARGET : ENGH & HUBER                                    
   3                                                                      
   3  DATA USED IN REFINEMENT.                                            
   3   RESOLUTION RANGE HIGH (ANGSTROMS) : 2.30                           
   3   RESOLUTION RANGE LOW  (ANGSTROMS) : 20.00                          
   3   DATA CUTOFF            (SIGMA(F)) : 2.000                          
   3   DATA CUTOFF HIGH         (ABS(F)) : NULL                           
   3   DATA CUTOFF LOW          (ABS(F)) : NULL                           
   3   COMPLETENESS (WORKING+TEST)   (%) : NULL                           
   3   NUMBER OF REFLECTIONS             : 33179                          
   3                                                                      
   3  FIT TO DATA USED IN REFINEMENT.                                     
   3   CROSS-VALIDATION METHOD          : NULL                            
   3   FREE R VALUE TEST SET SELECTION  : RANDOM                          
   3   R VALUE            (WORKING SET) : 0.199                           
   3   FREE R VALUE                     : 0.245                           
   3   FREE R VALUE TEST SET SIZE   (%) : 10.000                          
   3   FREE R VALUE TEST SET COUNT      : 3314                            
   3   ESTIMATED ERROR OF FREE R VALUE  : NULL                            
   3                                                                      
   3  FIT IN THE HIGHEST RESOLUTION BIN.                                  
   3   TOTAL NUMBER OF BINS USED           : NULL                         
   3   BIN RESOLUTION RANGE HIGH       (A) : 2.30                         
   3   BIN RESOLUTION RANGE LOW        (A) : 2.40                         
   3   BIN COMPLETENESS (WORKING+TEST) (%) : NULL                         
   3   REFLECTIONS IN BIN    (WORKING SET) : NULL                         
   3   BIN R VALUE           (WORKING SET) : 0.2472                       
   3   BIN FREE R VALUE                    : 0.2944                       
   3   BIN FREE R VALUE TEST SET SIZE  (%) : 10.50                        
   3   BIN FREE R VALUE TEST SET COUNT     : 395                          
   3   ESTIMATED ERROR OF BIN FREE R VALUE : NULL                         
   3                                                                      
   3  NUMBER OF NON-HYDROGEN ATOMS USED IN REFINEMENT.                    
   3   PROTEIN ATOMS            : 5534                                    
   3   NUCLEIC ACID ATOMS       : 0                                       
   3   HETEROGEN ATOMS          : 33                                      
   3   SOLVENT ATOMS            : 139                                     
   3                                                                      
   3  B VALUES.                                                           
   3   FROM WILSON PLOT           (A**2) : 23.34                          
   3   MEAN B VALUE      (OVERALL, A**2) : NULL                           
   3   OVERALL ANISOTROPIC B VALUE.                                       
   3    B11 (A**2) : NULL                                                 
   3    B22 (A**2) : NULL                                                 
   3    B33 (A**2) : NULL                                                 
   3    B12 (A**2) : NULL                                                 
   3    B13 (A**2) : NULL                                                 
   3    B23 (A**2) : NULL                                                 
   3                                                                      
   3  ESTIMATED COORDINATE ERROR.                                         
   3   ESD FROM LUZZATI PLOT        (A) : NULL                            
   3   ESD FROM SIGMAA              (A) : NULL                            
   3   LOW RESOLUTION CUTOFF        (A) : NULL                            
   3                                                                      
   3  CROSS-VALIDATED ESTIMATED COORDINATE ERROR.                         
   3   ESD FROM C-V LUZZATI PLOT    (A) : NULL                            
   3   ESD FROM C-V SIGMAA          (A) : NULL                            
   3                                                                      
   3  RMS DEVIATIONS FROM IDEAL VALUES.                                   
   3   BOND LENGTHS                 (A) : 0.010                           
   3   BOND ANGLES            (DEGREES) : 1.600                           
   3   DIHEDRAL ANGLES        (DEGREES) : NULL                            
   3   IMPROPER ANGLES        (DEGREES) : NULL                            
   3                                                                      
   3  ISOTROPIC THERMAL MODEL : NULL                                      
   3                                                                      
   3  ISOTROPIC THERMAL FACTOR RESTRAINTS.    RMS    SIGMA                
   3   MAIN-CHAIN BOND              (A**2) : NULL  ; NULL                 
   3   MAIN-CHAIN ANGLE             (A**2) : NULL  ; NULL                 
   3   SIDE-CHAIN BOND              (A**2) : NULL  ; NULL                 
   3   SIDE-CHAIN ANGLE             (A**2) : NULL  ; NULL                 
   3                                                                      
   3  BULK SOLVENT MODELING.                                              
   3   METHOD USED : NULL                                                 
   3   KSOL        : NULL                                                 
   3   BSOL        : NULL                                                 
   3                                                                      
   3  NCS MODEL : NULL                                                    
   3                                                                      
   3  NCS RESTRAINTS.                         RMS   SIGMA/WEIGHT          
   3   GROUP  1  POSITIONAL            (A) : NULL  ; NULL                 
   3   GROUP  1  B-FACTOR           (A**2) : NULL  ; NULL                 
   3                                                                      
   3  PARAMETER FILE  1  : NULL                                           
   3  TOPOLOGY FILE  1   : NULL                                           
   3                                                                      
   3  OTHER REFINEMENT REMARKS: NULL                                      
   4                                                                      
   4 1KE0 COMPLIES WITH FORMAT V. 3.30, 13-JUL-11                         
 100                                                                      
 100 THIS ENTRY HAS BEEN PROCESSED BY RCSB ON 20-NOV-01.                  
 100 THE DEPOSITION ID IS D_1000014851.                                   
 200                                                                      
 200 EXPERIMENTAL DETAILS                                                 
 200  EXPERIMENT TYPE                : X-RAY DIFFRACTION                  
 200  DATE OF DATA COLLECTION        : 20-APR-99                          
 200  TEMPERATURE           (KELVIN) : 103                                
 200  PH                             : 8.7                                
 200  NUMBER OF CRYSTALS USED        : 1                                  
 200                                                                      
 200  SYNCHROTRON              (Y/N) : N                                  
 200  RADIATION SOURCE               : ROTATING ANODE                     
 200  BEAMLINE                       : NULL                               
 200  X-RAY GENERATOR MODEL          : RIGAKU RU200                       
 200  MONOCHROMATIC OR LAUE    (M/L) : M                                  
 200  WAVELENGTH OR RANGE        (A) : 1.5418                             
 200  MONOCHROMATOR                  : NULL                               
 200  OPTICS                         : NULL                               
 200                                                                      
 200  DETECTOR TYPE                  : IMAGE PLATE                        
 200  DETECTOR MANUFACTURER          : RIGAKU RAXIS IIC                   
 200  INTENSITY-INTEGRATION SOFTWARE : DENZO                              
 200  DATA SCALING SOFTWARE          : SCALEPACK                          
 200                                                                      
 200  NUMBER OF UNIQUE REFLECTIONS   : 33436                              
 200  RESOLUTION RANGE HIGH      (A) : 2.300                              
 200  RESOLUTION RANGE LOW       (A) : 20.000                             
 200  REJECTION CRITERIA  (SIGMA(I)) : -3.000                             
 200                                                                      
 200 OVERALL.                                                             
 200  COMPLETENESS FOR RANGE     (%) : 94.2                               
 200  DATA REDUNDANCY                : 1.900                              
 200  R MERGE                    (I) : 0.07500                            
 200  R SYM                      (I) : NULL                               
 200  <I/SIGMA(I)> FOR THE DATA SET  : 12.2000                            
 200                                                                      
 200 IN THE HIGHEST RESOLUTION SHELL.                                     
 200  HIGHEST RESOLUTION SHELL, RANGE HIGH (A) : 2.30                     
 200  HIGHEST RESOLUTION SHELL, RANGE LOW  (A) : 2.35                     
 200  COMPLETENESS FOR SHELL     (%) : 96.6                               
 200  DATA REDUNDANCY IN SHELL       : NULL                               
 200  R MERGE FOR SHELL          (I) : 0.23800                            
 200  R SYM FOR SHELL            (I) : NULL                               
 200  <I/SIGMA(I)> FOR SHELL         : 3.900                              
 200                                                                      
 200 DIFFRACTION PROTOCOL: SINGLE WAVELENGTH                              
 200 METHOD USED TO DETERMINE THE STRUCTURE: MOLECULAR REPLACEMENT        
 200 SOFTWARE USED: X-PLOR                                                
 200 STARTING MODEL: PDB ENTRY 1C3B                                       
 200                                                                      
 200 REMARK: NULL                                                         
 280                                                                      
 280 CRYSTAL                                                              
 280 SOLVENT CONTENT, VS   (%): 51.78                                     
 280 MATTHEWS COEFFICIENT, VM (ANGSTROMS**3/DA): 2.55                     
 280                                                                      
 280 CRYSTALLIZATION CONDITIONS: 1.7 M POTASSIUM PHOSPHATE, 590 UM 4      
 280  -(CARBOXYVIN-2-YL)PHENYLBORONIC ACID, PH 8.7, VAPOR DIFFUSION,      
 280  HANGING DROP, TEMPERATURE 296K                                      
 290                                                                      
 290 CRYSTALLOGRAPHIC SYMMETRY                                            
 290 SYMMETRY OPERATORS FOR SPACE GROUP: C 1 2 1                          
 290                                                                      
 290      SYMOP   SYMMETRY                                                
 290     NNNMMM   OPERATOR                                                
 290       1555   X,Y,Z                                                   
 290       2555   -X,Y,-Z                                                 
 290       3555   X+1/2,Y+1/2,Z                                           
 290       4555   -X+1/2,Y+1/2,-Z                                         
 290                                                                      
 290     WHERE NNN -> OPERATOR NUMBER                                     
 290           MMM -> TRANSLATION VECTOR                                  
 290                                                                      
 290 CRYSTALLOGRAPHIC SYMMETRY TRANSFORMATIONS                            
 290 THE FOLLOWING TRANSFORMATIONS OPERATE ON THE ATOM/HETATM             
 290 RECORDS IN THIS ENTRY TO PRODUCE CRYSTALLOGRAPHICALLY                
 290 RELATED MOLECULES.                                                   
 290   SMTRY1   1  1.000000  0.000000  0.000000        0.00000            
 290   SMTRY2   1  0.000000  1.000000  0.000000        0.00000            
 290   SMTRY3   1  0.000000  0.000000  1.000000        0.00000            
 290   SMTRY1   2 -1.000000  0.000000  0.000000        0.00000            
 290   SMTRY2   2  0.000000  1.000000  0.000000        0.00000            
 290   SMTRY3   2  0.000000  0.000000 -1.000000        0.00000            
 290   SMTRY1   3  1.000000  0.000000  0.000000       59.31000            
 290   SMTRY2   3  0.000000  1.000000  0.000000       38.71500            
 290   SMTRY3   3  0.000000  0.000000  1.000000        0.00000            
 290   SMTRY1   4 -1.000000  0.000000  0.000000       59.31000            
 290   SMTRY2   4  0.000000  1.000000  0.000000       38.71500            
 290   SMTRY3   4  0.000000  0.000000 -1.000000        0.00000            
 290                                                                      
 290 REMARK: NULL                                                         
 300                                                                      
 300 BIOMOLECULE: 1, 2                                                    
 300 SEE REMARK 350 FOR THE AUTHOR PROVIDED AND/OR PROGRAM                
 300 GENERATED ASSEMBLY INFORMATION FOR THE STRUCTURE IN                  
 300 THIS ENTRY. THE REMARK MAY ALSO PROVIDE INFORMATION ON               
 300 BURIED SURFACE AREA.                                                 
 350                                                                      
 350 COORDINATES FOR A COMPLETE MULTIMER REPRESENTING THE KNOWN           
 350 BIOLOGICALLY SIGNIFICANT OLIGOMERIZATION STATE OF THE                
 350 MOLECULE CAN BE GENERATED BY APPLYING BIOMT TRANSFORMATIONS          
 350 GIVEN BELOW.  BOTH NON-CRYSTALLOGRAPHIC AND                          
 350 CRYSTALLOGRAPHIC OPERATIONS ARE GIVEN.                               
 350                                                                      
 350 BIOMOLECULE: 1                                                       
 350 AUTHOR DETERMINED BIOLOGICAL UNIT: MONOMERIC                         
 350 APPLY THE FOLLOWING TO CHAINS: A                                     
 350   BIOMT1   1  1.000000  0.000000  0.000000        0.00000            
 350   BIOMT2   1  0.000000  1.000000  0.000000        0.00000            
 350   BIOMT3   1  0.000000  0.000000  1.000000        0.00000            
 350                                                                      
 350 BIOMOLECULE: 2                                                       
 350 AUTHOR DETERMINED BIOLOGICAL UNIT: MONOMERIC                         
 350 APPLY THE FOLLOWING TO CHAINS: B                                     
 350   BIOMT1   1  1.000000  0.000000  0.000000        0.00000            
 350   BIOMT2   1  0.000000  1.000000  0.000000        0.00000            
 350   BIOMT3   1  0.000000  0.000000  1.000000        0.00000            
 470                                                                      
 470 MISSING ATOM                                                         
 470 THE FOLLOWING RESIDUES HAVE MISSING ATOMS (M=MODEL NUMBER;           
 470 RES=RESIDUE NAME; C=CHAIN IDENTIFIER; SSEQ=SEQUENCE NUMBER;          
 470 I=INSERTION CODE):                                                   
 470   M RES CSSEQI  ATOMS                                                
 470     GLN A  22    CG   CD   OE1  NE2                                  
 470     LYS A  37    CG   CD   CE   NZ                                   
 470     LYS A  99    CG   CD   CE   NZ                                   
 470     LYS A 239    CG   CD   CE   NZ                                   
 470     ASN A 285    CG   OD1  ND2                                       
 470     LYS A 290    CG   CD   CE   NZ                                   
 470     GLU A 333    CG   CD   OE1  OE2                                  
 470     GLN A 361    CG   CD   OE1  NE2                                  
 470     GLN B   7    CG   CD   OE1  NE2                                  
 470     LYS B  24    CG   CD   CE   NZ                                   
 470     LYS B  37    CG   CD   CE   NZ                                   
 470     LYS B  50    CG   CD   CE   NZ                                   
 470     LYS B  99    CG   CD   CE   NZ                                   
 470     ASP B 123    CG   OD1  OD2                                       
 470     LYS B 126    CG   CD   CE   NZ                                   
 470     LYS B 207    CG   CD   CE   NZ                                   
 470     GLN B 361    CG   CD   OE1  NE2                                  
 500                                                                      
 500 GEOMETRY AND STEREOCHEMISTRY                                         
 500 SUBTOPIC: TORSION ANGLES                                             
 500                                                                      
 500 TORSION ANGLES OUTSIDE THE EXPECTED RAMACHANDRAN REGIONS:            
 500 (M=MODEL NUMBER; RES=RESIDUE NAME; C=CHAIN IDENTIFIER;               
 500 SSEQ=SEQUENCE NUMBER; I=INSERTION CODE).                             
 500                                                                      
 500 STANDARD TABLE:                                                      
 500 FORMAT:(10X,I3,1X,A3,1X,A1,I4,A1,4X,F7.2,3X,F7.2)                    
 500                                                                      
 500 EXPECTED VALUES: GJ KLEYWEGT AND TA JONES (1996). PHI/PSI-           
 500 CHOLOGY: RAMACHANDRAN REVISITED. STRUCTURE 4, 1395 - 1400            
 500                                                                      
 500  M RES CSSEQI        PSI       PHI                                   
 500    TRP A  93       65.74   -152.03                                   
 500    VAL A 178      -60.17   -127.57                                   
 500    TYR A 221       18.88   -159.59                                   
 500    LYS A 290      -19.46   -147.60                                   
 500    ALA A 307      123.53    -39.26                                   
 500    LYS A 315      136.60   -172.73                                   
 500    ASN A 341       60.02   -101.81                                   
 500    LYS A 342      133.14   -171.33                                   
 500    PRO B 122      131.79    -39.92                                   
 500    LYS B 126      -73.70   -120.79                                   
 500    SER B 154      -70.16    -86.23                                   
 500    VAL B 178      -61.50   -123.73                                   
 500    TYR B 221       20.04   -163.59                                   
 500    LYS B 315      125.14   -179.76                                   
 500    ASN B 341       46.19    -87.49                                   
 500    PRO B 345      130.06    -39.15                                   
 500                                                                      
 500 REMARK: NULL                                                         
 800                                                                      
 800 SITE                                                                 
 800 SITE_IDENTIFIER: AC1                                                 
 800 EVIDENCE_CODE: SOFTWARE                                              
 800 SITE_DESCRIPTION: BINDING SITE FOR RESIDUE PO4 A 1                   
 800                                                                      
 800 SITE_IDENTIFIER: AC2                                                 
 800 EVIDENCE_CODE: SOFTWARE                                              
 800 SITE_DESCRIPTION: BINDING SITE FOR RESIDUE CVB A 364                 
 800                                                                      
 800 SITE_IDENTIFIER: AC3                                                 
 800 EVIDENCE_CODE: SOFTWARE                                              
 800 SITE_DESCRIPTION: BINDING SITE FOR RESIDUE CVB B 364                 
 900                                                                      
 900 RELATED ENTRIES                                                      
 900 RELATED ID: 1C3B   RELATED DB: PDB                                   
 900 AMPC IN COMPLEX WITH BENZO[B]THIOPHENE-2-BORONIC ACID                
 900 RELATED ID: 1GA9   RELATED DB: PDB                                   
 900 AMPC IN COMPLEX WITH 2,3-(4-BENZENESULFONYL-THIOPHENE-2-             
 900 SULFONYLAMINO)PHENYLBORONIC ACID                                     
 900 RELATED ID: 3BLS   RELATED DB: PDB                                   
 900 AMPC IN COMPLEX WITH M-AMINOPHENYLBORONIC ACID                       
 900 RELATED ID: 1KDS   RELATED DB: PDB                                   
 900 AMPC IN COMPLEX WITH 3-NITROPHENYLBORONIC ACID                       
 900 RELATED ID: 1KDW   RELATED DB: PDB                                   
 900 AMPC IN COMPLEX WITH 4-CARBOXYPHENYLBORONIC ACID                     
 900 RELATED ID: 1KE3   RELATED DB: PDB                                   
 900 AMPC IN COMPLEX WITH 4,4'-BIPHENYLDIBORONIC ACID                     
 900 RELATED ID: 1KE4   RELATED DB: PDB                                   
 900 AMPC                                                                 

>  <DBREF>
 1KE0 A    4   361  UNP    P00811   AMPC_ECOLI      20    377             
 1KE0 B    4   361  UNP    P00811   AMPC_ECOLI      20    377             

>  <SEQRES>
   1 A  358  ALA PRO GLN GLN ILE ASN ASP ILE VAL HIS ARG THR ILE          
   2 A  358  THR PRO LEU ILE GLU GLN GLN LYS ILE PRO GLY MET ALA          
   3 A  358  VAL ALA VAL ILE TYR GLN GLY LYS PRO TYR TYR PHE THR          
   4 A  358  TRP GLY TYR ALA ASP ILE ALA LYS LYS GLN PRO VAL THR          
   5 A  358  GLN GLN THR LEU PHE GLU LEU GLY SER VAL SER LYS THR          
   6 A  358  PHE THR GLY VAL LEU GLY GLY ASP ALA ILE ALA ARG GLY          
   7 A  358  GLU ILE LYS LEU SER ASP PRO THR THR LYS TYR TRP PRO          
   8 A  358  GLU LEU THR ALA LYS GLN TRP ASN GLY ILE THR LEU LEU          
   9 A  358  HIS LEU ALA THR TYR THR ALA GLY GLY LEU PRO LEU GLN          
  10 A  358  VAL PRO ASP GLU VAL LYS SER SER SER ASP LEU LEU ARG          
  11 A  358  PHE TYR GLN ASN TRP GLN PRO ALA TRP ALA PRO GLY THR          
  12 A  358  GLN ARG LEU TYR ALA ASN SER SER ILE GLY LEU PHE GLY          
  13 A  358  ALA LEU ALA VAL LYS PRO SER GLY LEU SER PHE GLU GLN          
  14 A  358  ALA MET GLN THR ARG VAL PHE GLN PRO LEU LYS LEU ASN          
  15 A  358  HIS THR TRP ILE ASN VAL PRO PRO ALA GLU GLU LYS ASN          
  16 A  358  TYR ALA TRP GLY TYR ARG GLU GLY LYS ALA VAL HIS VAL          
  17 A  358  SER PRO GLY ALA LEU ASP ALA GLU ALA TYR GLY VAL LYS          
  18 A  358  SER THR ILE GLU ASP MET ALA ARG TRP VAL GLN SER ASN          
  19 A  358  LEU LYS PRO LEU ASP ILE ASN GLU LYS THR LEU GLN GLN          
  20 A  358  GLY ILE GLN LEU ALA GLN SER ARG TYR TRP GLN THR GLY          
  21 A  358  ASP MET TYR GLN GLY LEU GLY TRP GLU MET LEU ASP TRP          
  22 A  358  PRO VAL ASN PRO ASP SER ILE ILE ASN GLY SER ASP ASN          
  23 A  358  LYS ILE ALA LEU ALA ALA ARG PRO VAL LYS ALA ILE THR          
  24 A  358  PRO PRO THR PRO ALA VAL ARG ALA SER TRP VAL HIS LYS          
  25 A  358  THR GLY ALA THR GLY GLY PHE GLY SER TYR VAL ALA PHE          
  26 A  358  ILE PRO GLU LYS GLU LEU GLY ILE VAL MET LEU ALA ASN          
  27 A  358  LYS ASN TYR PRO ASN PRO ALA ARG VAL ASP ALA ALA TRP          
  28 A  358  GLN ILE LEU ASN ALA LEU GLN                                  
   1 B  358  ALA PRO GLN GLN ILE ASN ASP ILE VAL HIS ARG THR ILE          
   2 B  358  THR PRO LEU ILE GLU GLN GLN LYS ILE PRO GLY MET ALA          
   3 B  358  VAL ALA VAL ILE TYR GLN GLY LYS PRO TYR TYR PHE THR          
   4 B  358  TRP GLY TYR ALA ASP ILE ALA LYS LYS GLN PRO VAL THR          
   5 B  358  GLN GLN THR LEU PHE GLU LEU GLY SER VAL SER LYS THR          
   6 B  358  PHE THR GLY VAL LEU GLY GLY ASP ALA ILE ALA ARG GLY          
   7 B  358  GLU ILE LYS LEU SER ASP PRO THR THR LYS TYR TRP PRO          
   8 B  358  GLU LEU THR ALA LYS GLN TRP ASN GLY ILE THR LEU LEU          
   9 B  358  HIS LEU ALA THR TYR THR ALA GLY GLY LEU PRO LEU GLN          
  10 B  358  VAL PRO ASP GLU VAL LYS SER SER SER ASP LEU LEU ARG          
  11 B  358  PHE TYR GLN ASN TRP GLN PRO ALA TRP ALA PRO GLY THR          
  12 B  358  GLN ARG LEU TYR ALA ASN SER SER ILE GLY LEU PHE GLY          
  13 B  358  ALA LEU ALA VAL LYS PRO SER GLY LEU SER PHE GLU GLN          
  14 B  358  ALA MET GLN THR ARG VAL PHE GLN PRO LEU LYS LEU ASN          
  15 B  358  HIS THR TRP ILE ASN VAL PRO PRO ALA GLU GLU LYS ASN          
  16 B  358  TYR ALA TRP GLY TYR ARG GLU GLY LYS ALA VAL HIS VAL          
  17 B  358  SER PRO GLY ALA LEU ASP ALA GLU ALA TYR GLY VAL LYS          
  18 B  358  SER THR ILE GLU ASP MET ALA ARG TRP VAL GLN SER ASN          
  19 B  358  LEU LYS PRO LEU ASP ILE ASN GLU LYS THR LEU GLN GLN          
  20 B  358  GLY ILE GLN LEU ALA GLN SER ARG TYR TRP GLN THR GLY          
  21 B  358  ASP MET TYR GLN GLY LEU GLY TRP GLU MET LEU ASP TRP          
  22 B  358  PRO VAL ASN PRO ASP SER ILE ILE ASN GLY SER ASP ASN          
  23 B  358  LYS ILE ALA LEU ALA ALA ARG PRO VAL LYS ALA ILE THR          
  24 B  358  PRO PRO THR PRO ALA VAL ARG ALA SER TRP VAL HIS LYS          
  25 B  358  THR GLY ALA THR GLY GLY PHE GLY SER TYR VAL ALA PHE          
  26 B  358  ILE PRO GLU LYS GLU LEU GLY ILE VAL MET LEU ALA ASN          
  27 B  358  LYS ASN TYR PRO ASN PRO ALA ARG VAL ASP ALA ALA TRP          
  28 B  358  GLN ILE LEU ASN ALA LEU GLN                                  

>  <HET>
 PO4  A   1       5                                                       
 CVB  A 364      14                                                       
 CVB  B 364      14                                                       

>  <HETNAM>
     PO4 PHOSPHATE ION                                                    
     CVB 4-(CARBOXYVIN-2-YL)PHENYLBORONIC ACID                            

>  <FORMUL>
   3  PO4    O4 P 3-                                                      
   4  CVB    2(C9 H9 B O4)                                                
   6  HOH   *139(H2 O)                                                    

>  <HELIX>
   1   1 PRO A    5  LYS A   24  1                                  20    
   2   2 VAL A   65  ARG A   80  1                                  16    
   3   3 PRO A   88  TRP A   93  5                                   6    
   4   4 ALA A   98  ASN A  102  5                                   5    
   5   5 THR A  105  THR A  111  1                                   7    
   6   6 SER A  127  TRP A  138  1                                  12    
   7   7 ALA A  151  VAL A  163  1                                  13    
   8   8 SER A  169  VAL A  178  1                                  10    
   9   9 PRO A  192  TYR A  199  5                                   8    
  10  10 LEU A  216  TYR A  221  1                                   6    
  11  11 THR A  226  LYS A  239  1                                  14    
  12  12 PRO A  240  ILE A  243  5                                   4    
  13  13 GLU A  245  GLN A  256  1                                  12    
  14  14 ASN A  279  ASP A  288  1                                  10    
  15  15 PRO A  345  ALA A  359  1                                  15    
  16  16 PRO B    5  LYS B   24  1                                  20    
  17  17 GLY B   63  VAL B   65  5                                   3    
  18  18 SER B   66  ARG B   80  1                                  15    
  19  19 PRO B   88  TYR B   92  5                                   5    
  20  20 ALA B   98  ASN B  102  5                                   5    
  21  21 THR B  105  THR B  111  1                                   7    
  22  22 SER B  127  TRP B  138  1                                  12    
  23  23 ALA B  151  VAL B  163  1                                  13    
  24  24 SER B  169  VAL B  178  1                                  10    
  25  25 PRO B  192  TYR B  199  5                                   8    
  26  26 LEU B  216  TYR B  221  1                                   6    
  27  27 THR B  226  LYS B  239  1                                  14    
  28  28 PRO B  240  ILE B  243  5                                   4    
  29  29 GLU B  245  GLN B  256  1                                  12    
  30  30 ASN B  279  ASP B  288  1                                  10    
  31  31 ASP B  288  LEU B  293  1                                   6    
  32  32 PRO B  330  GLU B  333  5                                   4    
  33  33 PRO B  345  LEU B  360  1                                  16    

>  <SHEET>
   1   A10 GLN A  52  PRO A  53  0                                        
   2   A10 LYS A  37  ASP A  47 -1  N  ASP A  47   O  GLN A  52           
   3   A10 GLY A  27  TYR A  34 -1  N  MET A  28   O  TRP A  43           
   4   A10 LEU A 334  ALA A 340 -1  O  GLY A 335   N  ILE A  33           
   5   A10 GLY A 323  ILE A 329 -1  N  ILE A 329   O  LEU A 334           
   6   A10 SER A 311  ALA A 318 -1  N  VAL A 313   O  PHE A 328           
   7   A10 GLU A 272  ASP A 275 -1  N  LEU A 274   O  TRP A 312           
   8   A10 MET A 265  GLN A 267 -1  N  TYR A 266   O  MET A 273           
   9   A10 ARG A 258  THR A 262 -1  N  TRP A 260   O  GLN A 267           
  10   A10 LYS A 299  THR A 305 -1  O  THR A 305   N  ARG A 258           
   1   B 2 PHE A  60  GLU A  61  0                                        
   2   B 2 LYS A 224  SER A 225 -1  O  SER A 225   N  PHE A  60           
   1   C 2 GLN A 147  ARG A 148  0                                        
   2   C 2 ARG A 296  PRO A 297 -1  O  ARG A 296   N  ARG A 148           
   1   D 2 GLY A 202  ARG A 204  0                                        
   2   D 2 LYS A 207  VAL A 209 -1  O  VAL A 209   N  GLY A 202           
   1   E10 GLN B  52  PRO B  53  0                                        
   2   E10 LYS B  37  ASP B  47 -1  N  ASP B  47   O  GLN B  52           
   3   E10 GLY B  27  TYR B  34 -1  N  TYR B  34   O  LYS B  37           
   4   E10 LEU B 334  ALA B 340 -1  O  LEU B 339   N  ALA B  29           
   5   E10 PHE B 322  ILE B 329 -1  N  ILE B 329   O  LEU B 334           
   6   E10 SER B 311  THR B 319 -1  N  GLY B 317   O  SER B 324           
   7   E10 GLU B 272  ASP B 275 -1  N  GLU B 272   O  HIS B 314           
   8   E10 MET B 265  GLN B 267 -1  N  TYR B 266   O  MET B 273           
   9   E10 ARG B 258  THR B 262 -1  N  THR B 262   O  MET B 265           
  10   E10 LYS B 299  THR B 305 -1  O  THR B 305   N  ARG B 258           
   1   F 2 PHE B  60  GLU B  61  0                                        
   2   F 2 LYS B 224  SER B 225 -1  O  SER B 225   N  PHE B  60           
   1   G 2 GLN B 147  ARG B 148  0                                        
   2   G 2 ARG B 296  PRO B 297 -1  O  ARG B 296   N  ARG B 148           
   1   H 2 GLY B 202  ARG B 204  0                                        
   2   H 2 LYS B 207  VAL B 209 -1  O  VAL B 209   N  GLY B 202           

>  <LINK>
       OG  SER A  64                 B   CVB A 364     1555   1555  1.71  
       OG  SER B  64                 B   CVB B 364     1555   1555  1.62  

>  <CISPEP>
   1 TRP A  276    PRO A  277          0        -0.26                     
   2 THR A  302    PRO A  303          0        -0.58                     
   3 TRP B  276    PRO B  277          0         0.87                     
   4 THR B  302    PRO B  303          0        -0.23                     

>  <SITE>
   1 AC1  4 ARG A 133  HIS A 186  HOH A 523  LYS B 290                    
   1 AC2  7 SER A  64  TYR A 150  ASN A 152  GLY A 317                    
   2 AC2  7 ALA A 318  HOH A 402  HOH A 423                               
   1 AC3  9 SER B  64  GLN B 120  TYR B 150  ASN B 152                    
   2 AC3  9 TYR B 221  GLY B 317  ALA B 318  HOH B 400                    
   3 AC3  9 HOH B 536                                                     

>  <ORIGX1>
      1.000000  0.000000  0.000000        0.00000                         

>  <ORIGX2>
      0.000000  1.000000  0.000000        0.00000                         

>  <ORIGX3>
      0.000000  0.000000  1.000000        0.00000                         

>  <SCALE1>
      0.008430  0.000000  0.003989        0.00000                         

>  <SCALE2>
      0.000000  0.012915  0.000000        0.00000                         

>  <SCALE3>
      0.000000  0.000000  0.011362        0.00000                         

>  <MASTER>
      302    0    3   33   32    0    6    6 5706    2   35   56          

$$$$
