start_structures/Ligand_Substrate/Ligand_Complex_Stripped/CXB_1NYM.pdb
 OpenBabel08222315203D

 23 23  0  0  1  0  0  0  0  0999 V2000
   10.3380    4.3570   34.9570 N   0  0  0  0  0  0  0  0  0  0  0  0
    9.0630    4.4040   35.6460 C   0  0  2  0  0  0  0  0  0  0  0  0
    7.9300    3.6670   34.9520 C   0  0  0  0  0  0  0  0  0  0  0  0
    6.8370    3.5380   35.5290 O   0  0  0  0  0  0  0  0  0  0  0  0
    8.6370    5.8390   35.9270 C   0  0  0  0  0  0  0  0  0  0  0  0
    9.5500    6.4540   36.8120 O   0  0  0  0  0  0  0  0  0  0  0  0
   11.2940   13.0400   37.6420 C   0  0  0  0  0  0  0  0  0  0  0  0
   12.4410   12.2120   37.6320 O   0  0  0  0  0  0  0  0  0  0  0  0
   13.6050   11.9970   36.9950 N   0  0  0  0  0  0  0  0  0  0  0  0
   13.9000   10.7740   37.1970 C   0  0  2  0  0  0  0  0  0  0  0  0
   13.0300    9.7150   37.8180 C   0  0  0  0  0  0  0  0  0  0  0  0
   13.3210    9.3380   38.9290 O   0  0  0  0  0  0  0  0  0  0  0  0
   12.0730    9.2510   37.1080 N   0  0  0  0  0  0  0  0  0  0  0  0
   11.1490    8.2170   37.5760 C   0  0  0  0  0  0  0  0  0  0  0  0
   10.3560    7.6360   36.3000 B   0  0  0  0  0  0  0  0  0  0  0  0
   11.2450    7.1170   35.2320 O   0  0  0  0  0  0  0  0  0  0  0  0
    9.3900    8.5970   35.7140 O   0  0  0  0  0  0  0  0  0  0  0  0
   15.3080   10.3820   36.9080 C   0  0  0  0  0  0  0  0  0  0  0  0
   15.9100    9.2540   37.3880 C   0  0  0  0  0  0  0  0  0  0  0  0
   17.5650    9.1870   36.9100 S   0  0  0  0  0  0  0  0  0  0  0  0
   17.3300   10.6540   36.0700 C   0  0  0  0  0  0  0  0  0  0  0  0
   18.3910   11.2020   35.3630 N   0  0  0  0  0  0  0  0  0  0  0  0
   16.1150   11.1890   36.1320 N   0  0  0  0  0  0  0  0  0  0  0  0
  2  1  1  6  0  0  0
  2  5  1  0  0  0  0
  3  4  2  0  0  0  0
  3  2  1  0  0  0  0
  5  6  1  0  0  0  0
  7  8  1  0  0  0  0
  8  9  1  0  0  0  0
 10  9  1  1  0  0  0
 10 11  1  0  0  0  0
 10 18  1  0  0  0  0
 11 12  2  0  0  0  0
 11 13  1  0  0  0  0
 13 14  1  0  0  0  0
 14 15  1  0  0  0  0
 15 16  1  0  0  0  0
 15 17  1  0  0  0  0
 15  6  1  0  0  0  0
 18 19  2  0  0  0  0
 18 23  1  0  0  0  0
 19 20  1  0  0  0  0
 20 21  1  0  0  0  0
 21 22  1  0  0  0  0
 21 23  2  0  0  0  0
M  END
>  <HEADER>
    HYDROLASE                               12-FEB-03   1NYM              

>  <TITLE>
    CRYSTAL STRUCTURE OF THE COMPLEX BETWEEN M182T MUTANT OF TEM-1 AND A  
   2 BORONIC ACID INHIBITOR (CXB)                                         

>  <COMPND>
    MOL_ID: 1;                                                            
   2 MOLECULE: BETA-LACTAMASE TEM;                                        
   3 CHAIN: A;                                                            
   4 SYNONYM: TEM-1, TEM-2, TEM-3, TEM-4, TEM-5, TEM-6, TEM-8/CAZ-2, TEM- 
   5 16/CAZ-7, TEM-24/CAZ-6, IRT-4, PENICILLINASE;                        
   6 EC: 3.5.2.6;                                                         
   7 ENGINEERED: YES;                                                     
   8 MUTATION: YES                                                        

>  <SOURCE>
    MOL_ID: 1;                                                            
   2 ORGANISM_SCIENTIFIC: ESCHERICHIA COLI;                               
   3 ORGANISM_TAXID: 562;                                                 
   4 GENE: BLA;                                                           
   5 EXPRESSION_SYSTEM: ESCHERICHIA COLI;                                 
   6 EXPRESSION_SYSTEM_TAXID: 562;                                        
   7 EXPRESSION_SYSTEM_VECTOR_TYPE: PLASMID;                              
   8 EXPRESSION_SYSTEM_PLASMID: PALTER EX II-TEM-1                        

>  <KEYWDS>
    ANTIBIOTIC RESISTANCE, BETA-LACTAMASE, ACYLATION TRANSITION-STATE     
   2 ANALOG, HYDROLASE                                                    

>  <EXPDTA>
    X-RAY DIFFRACTION                                                     

>  <AUTHOR>
    X.WANG,G.MINASOV,J.BLAZQUEZ,E.CASELLI,F.PRATI,B.K.SHOICHET            

>  <REVDAT>
   4   16-AUG-23 1NYM    1       REMARK                                   
   3   27-OCT-21 1NYM    1       REMARK SEQADV                            
   2   24-FEB-09 1NYM    1       VERSN                                    
   1   26-AUG-03 1NYM    0                                                

>  <JRNL>
      AUTH   X.WANG,G.MINASOV,E.CASELLI,F.PRATI,B.K.SHOICHET              
      TITL   RECOGNITION AND RESISTANCE IN TEM BETA-LACTAMASE             
      REF    BIOCHEMISTRY                  V.  42  8434 2003              
      REFN                   ISSN 0006-2960                               
      PMID   12859188                                                     
      DOI    10.1021/BI034242Y                                            

>  <REMARK>
   2                                                                      
   2 RESOLUTION.    1.20 ANGSTROMS.                                       
   3                                                                      
   3 REFINEMENT.                                                          
   3   PROGRAM     : SHELXL-97                                            
   3   AUTHORS     : G.M.SHELDRICK                                        
   3                                                                      
   3  DATA USED IN REFINEMENT.                                            
   3   RESOLUTION RANGE HIGH (ANGSTROMS) : 1.20                           
   3   RESOLUTION RANGE LOW  (ANGSTROMS) : 15.00                          
   3   DATA CUTOFF            (SIGMA(F)) : 0.000                          
   3   COMPLETENESS FOR RANGE        (%) : 93.9                           
   3   CROSS-VALIDATION METHOD           : THROUGHOUT                     
   3   FREE R VALUE TEST SET SELECTION   : RANDOM                         
   3                                                                      
   3  FIT TO DATA USED IN REFINEMENT (NO CUTOFF).                         
   3   R VALUE   (WORKING + TEST SET, NO CUTOFF) : 0.106                  
   3   R VALUE          (WORKING SET, NO CUTOFF) : NULL                   
   3   FREE R VALUE                  (NO CUTOFF) : 0.148                  
   3   FREE R VALUE TEST SET SIZE (%, NO CUTOFF) : NULL                   
   3   FREE R VALUE TEST SET COUNT   (NO CUTOFF) : 3556                   
   3   TOTAL NUMBER OF REFLECTIONS   (NO CUTOFF) : 67554                  
   3                                                                      
   3  FIT/AGREEMENT OF MODEL FOR DATA WITH F>4SIG(F).                     
   3   R VALUE   (WORKING + TEST SET, F>4SIG(F)) : 0.099                  
   3   R VALUE          (WORKING SET, F>4SIG(F)) : NULL                   
   3   FREE R VALUE                  (F>4SIG(F)) : NULL                   
   3   FREE R VALUE TEST SET SIZE (%, F>4SIG(F)) : NULL                   
   3   FREE R VALUE TEST SET COUNT   (F>4SIG(F)) : NULL                   
   3   TOTAL NUMBER OF REFLECTIONS   (F>4SIG(F)) : 58427                  
   3                                                                      
   3  NUMBER OF NON-HYDROGEN ATOMS USED IN REFINEMENT.                    
   3   PROTEIN ATOMS      : 2026                                          
   3   NUCLEIC ACID ATOMS : 0                                             
   3   HETEROGEN ATOMS    : 30                                            
   3   SOLVENT ATOMS      : 436                                           
   3                                                                      
   3  MODEL REFINEMENT.                                                   
   3   OCCUPANCY SUM OF NON-HYDROGEN ATOMS      : 2419.5                  
   3   OCCUPANCY SUM OF HYDROGEN ATOMS          : 2034.0                  
   3   NUMBER OF DISCRETELY DISORDERED RESIDUES : 170                     
   3   NUMBER OF LEAST-SQUARES PARAMETERS       : 26888                   
   3   NUMBER OF RESTRAINTS                     : 46021                   
   3                                                                      
   3  RMS DEVIATIONS FROM RESTRAINT TARGET VALUES.                        
   3   BOND LENGTHS                         (A) : 0.007                   
   3   ANGLE DISTANCES                      (A) : 0.017                   
   3   SIMILAR DISTANCES (NO TARGET VALUES) (A) : 0.000                   
   3   DISTANCES FROM RESTRAINT PLANES      (A) : 0.014                   
   3   ZERO CHIRAL VOLUMES               (A**3) : 0.083                   
   3   NON-ZERO CHIRAL VOLUMES           (A**3) : 0.087                   
   3   ANTI-BUMPING DISTANCE RESTRAINTS     (A) : 0.046                   
   3   RIGID-BOND ADP COMPONENTS         (A**2) : 0.010                   
   3   SIMILAR ADP COMPONENTS            (A**2) : 0.039                   
   3   APPROXIMATELY ISOTROPIC ADPS      (A**2) : 0.082                   
   3                                                                      
   3  BULK SOLVENT MODELING.                                              
   3   METHOD USED: NULL                                                  
   3                                                                      
   3  STEREOCHEMISTRY TARGET VALUES : ENGH & HUBER                        
   3   SPECIAL CASE: NULL                                                 
   3                                                                      
   3  OTHER REFINEMENT REMARKS: KONNERT-HENDRICKSON CONJUGATE-GRADIENT    
   3  ALGORITHM USED IN REFINEMENT                                        
   4                                                                      
   4 1NYM COMPLIES WITH FORMAT V. 3.30, 13-JUL-11                         
 100                                                                      
 100 THIS ENTRY HAS BEEN PROCESSED BY RCSB ON 25-FEB-03.                  
 100 THE DEPOSITION ID IS D_1000018355.                                   
 200                                                                      
 200 EXPERIMENTAL DETAILS                                                 
 200  EXPERIMENT TYPE                : X-RAY DIFFRACTION                  
 200  DATE OF DATA COLLECTION        : 06-AUG-01                          
 200  TEMPERATURE           (KELVIN) : 100.0                              
 200  PH                             : 8.3                                
 200  NUMBER OF CRYSTALS USED        : 1                                  
 200                                                                      
 200  SYNCHROTRON              (Y/N) : Y                                  
 200  RADIATION SOURCE               : APS                                
 200  BEAMLINE                       : 5ID-B                              
 200  X-RAY GENERATOR MODEL          : NULL                               
 200  MONOCHROMATIC OR LAUE    (M/L) : M                                  
 200  WAVELENGTH OR RANGE        (A) : 1.00000                            
 200  MONOCHROMATOR                  : GRAPHITE                           
 200  OPTICS                         : MIRRORS                            
 200                                                                      
 200  DETECTOR TYPE                  : CCD                                
 200  DETECTOR MANUFACTURER          : MARRESEARCH                        
 200  INTENSITY-INTEGRATION SOFTWARE : DENZO                              
 200  DATA SCALING SOFTWARE          : SCALEPACK                          
 200                                                                      
 200  NUMBER OF UNIQUE REFLECTIONS   : 71168                              
 200  RESOLUTION RANGE HIGH      (A) : 1.200                              
 200  RESOLUTION RANGE LOW       (A) : 15.000                             
 200  REJECTION CRITERIA  (SIGMA(I)) : -3.000                             
 200                                                                      
 200 OVERALL.                                                             
 200  COMPLETENESS FOR RANGE     (%) : 99.0                               
 200  DATA REDUNDANCY                : 5.900                              
 200  R MERGE                    (I) : 0.05000                            
 200  R SYM                      (I) : NULL                               
 200  <I/SIGMA(I)> FOR THE DATA SET  : 30.3000                            
 200                                                                      
 200 IN THE HIGHEST RESOLUTION SHELL.                                     
 200  HIGHEST RESOLUTION SHELL, RANGE HIGH (A) : 1.20                     
 200  HIGHEST RESOLUTION SHELL, RANGE LOW  (A) : 1.24                     
 200  COMPLETENESS FOR SHELL     (%) : 98.0                               
 200  DATA REDUNDANCY IN SHELL       : 4.50                               
 200  R MERGE FOR SHELL          (I) : 0.28900                            
 200  R SYM FOR SHELL            (I) : NULL                               
 200  <I/SIGMA(I)> FOR SHELL         : 4.100                              
 200                                                                      
 200 DIFFRACTION PROTOCOL: SINGLE WAVELENGTH                              
 200 METHOD USED TO DETERMINE THE STRUCTURE: MOLECULAR REPLACEMENT        
 200 SOFTWARE USED: AMORE                                                 
 200 STARTING MODEL: PDB ENTRY 1JWP                                       
 200                                                                      
 200 REMARK: NULL                                                         
 280                                                                      
 280 CRYSTAL                                                              
 280 SOLVENT CONTENT, VS   (%): 37.39                                     
 280 MATTHEWS COEFFICIENT, VM (ANGSTROMS**3/DA): 1.96                     
 280                                                                      
 280 CRYSTALLIZATION CONDITIONS: SODIUM-POTASSIUM BUFFER, PH 8.3, VAPOR   
 280  DIFFUSION, HANGING DROP, TEMPERATURE 295K                           
 290                                                                      
 290 CRYSTALLOGRAPHIC SYMMETRY                                            
 290 SYMMETRY OPERATORS FOR SPACE GROUP: P 21 21 21                       
 290                                                                      
 290      SYMOP   SYMMETRY                                                
 290     NNNMMM   OPERATOR                                                
 290       1555   X,Y,Z                                                   
 290       2555   -X+1/2,-Y,Z+1/2                                         
 290       3555   -X,Y+1/2,-Z+1/2                                         
 290       4555   X+1/2,-Y+1/2,-Z                                         
 290                                                                      
 290     WHERE NNN -> OPERATOR NUMBER                                     
 290           MMM -> TRANSLATION VECTOR                                  
 290                                                                      
 290 CRYSTALLOGRAPHIC SYMMETRY TRANSFORMATIONS                            
 290 THE FOLLOWING TRANSFORMATIONS OPERATE ON THE ATOM/HETATM             
 290 RECORDS IN THIS ENTRY TO PRODUCE CRYSTALLOGRAPHICALLY                
 290 RELATED MOLECULES.                                                   
 290   SMTRY1   1  1.000000  0.000000  0.000000        0.00000            
 290   SMTRY2   1  0.000000  1.000000  0.000000        0.00000            
 290   SMTRY3   1  0.000000  0.000000  1.000000        0.00000            
 290   SMTRY1   2 -1.000000  0.000000  0.000000       20.67200            
 290   SMTRY2   2  0.000000 -1.000000  0.000000        0.00000            
 290   SMTRY3   2  0.000000  0.000000  1.000000       44.56450            
 290   SMTRY1   3 -1.000000  0.000000  0.000000        0.00000            
 290   SMTRY2   3  0.000000  1.000000  0.000000       30.82950            
 290   SMTRY3   3  0.000000  0.000000 -1.000000       44.56450            
 290   SMTRY1   4  1.000000  0.000000  0.000000       20.67200            
 290   SMTRY2   4  0.000000 -1.000000  0.000000       30.82950            
 290   SMTRY3   4  0.000000  0.000000 -1.000000        0.00000            
 290                                                                      
 290 REMARK: NULL                                                         
 300                                                                      
 300 BIOMOLECULE: 1                                                       
 300 SEE REMARK 350 FOR THE AUTHOR PROVIDED AND/OR PROGRAM                
 300 GENERATED ASSEMBLY INFORMATION FOR THE STRUCTURE IN                  
 300 THIS ENTRY. THE REMARK MAY ALSO PROVIDE INFORMATION ON               
 300 BURIED SURFACE AREA.                                                 
 350                                                                      
 350 COORDINATES FOR A COMPLETE MULTIMER REPRESENTING THE KNOWN           
 350 BIOLOGICALLY SIGNIFICANT OLIGOMERIZATION STATE OF THE                
 350 MOLECULE CAN BE GENERATED BY APPLYING BIOMT TRANSFORMATIONS          
 350 GIVEN BELOW.  BOTH NON-CRYSTALLOGRAPHIC AND                          
 350 CRYSTALLOGRAPHIC OPERATIONS ARE GIVEN.                               
 350                                                                      
 350 BIOMOLECULE: 1                                                       
 350 AUTHOR DETERMINED BIOLOGICAL UNIT: MONOMERIC                         
 350 APPLY THE FOLLOWING TO CHAINS: A                                     
 350   BIOMT1   1  1.000000  0.000000  0.000000        0.00000            
 350   BIOMT2   1  0.000000  1.000000  0.000000        0.00000            
 350   BIOMT3   1  0.000000  0.000000  1.000000        0.00000            
 500                                                                      
 500 GEOMETRY AND STEREOCHEMISTRY                                         
 500 SUBTOPIC: CLOSE CONTACTS IN SAME ASYMMETRIC UNIT                     
 500                                                                      
 500 THE FOLLOWING ATOMS ARE IN CLOSE CONTACT.                            
 500                                                                      
 500  ATM1  RES C  SSEQI   ATM2  RES C  SSEQI           DISTANCE          
 500   OG   SER A    70     B    CXB A   300              1.52            
 500                                                                      
 500 REMARK: NULL                                                         
 500                                                                      
 500 GEOMETRY AND STEREOCHEMISTRY                                         
 500 SUBTOPIC: COVALENT BOND ANGLES                                       
 500                                                                      
 500 THE STEREOCHEMICAL PARAMETERS OF THE FOLLOWING RESIDUES              
 500 HAVE VALUES WHICH DEVIATE FROM EXPECTED VALUES BY MORE               
 500 THAN 6*RMSD (M=MODEL NUMBER; RES=RESIDUE NAME; C=CHAIN               
 500 IDENTIFIER; SSEQ=SEQUENCE NUMBER; I=INSERTION CODE).                 
 500                                                                      
 500 STANDARD TABLE:                                                      
 500 FORMAT: (10X,I3,1X,A3,1X,A1,I4,A1,3(1X,A4,2X),12X,F5.1)              
 500                                                                      
 500 EXPECTED VALUES PROTEIN: ENGH AND HUBER, 1999                        
 500 EXPECTED VALUES NUCLEIC ACID: CLOWNEY ET AL 1996                     
 500                                                                      
 500  M RES CSSEQI ATM1   ATM2   ATM3                                     
 500    ASP A  35   CB  -  CG  -  OD1 ANGL. DEV. =   6.4 DEGREES          
 500    ARG A  65   NE  -  CZ  -  NH2 ANGL. DEV. =  -3.6 DEGREES          
 500    ARG A  83   NE  -  CZ  -  NH1 ANGL. DEV. =  -4.5 DEGREES          
 500    TYR A 105   CB  -  CG  -  CD1 ANGL. DEV. =  -3.8 DEGREES          
 500    ARG A 244   NE  -  CZ  -  NH1 ANGL. DEV. =   3.6 DEGREES          
 500    ARG A 244   NE  -  CZ  -  NH2 ANGL. DEV. =  -3.8 DEGREES          
 500    ARG A 275   NE  -  CZ  -  NH1 ANGL. DEV. =  -4.0 DEGREES          
 500                                                                      
 500 REMARK: NULL                                                         
 500                                                                      
 500 GEOMETRY AND STEREOCHEMISTRY                                         
 500 SUBTOPIC: TORSION ANGLES                                             
 500                                                                      
 500 TORSION ANGLES OUTSIDE THE EXPECTED RAMACHANDRAN REGIONS:            
 500 (M=MODEL NUMBER; RES=RESIDUE NAME; C=CHAIN IDENTIFIER;               
 500 SSEQ=SEQUENCE NUMBER; I=INSERTION CODE).                             
 500                                                                      
 500 STANDARD TABLE:                                                      
 500 FORMAT:(10X,I3,1X,A3,1X,A1,I4,A1,4X,F7.2,3X,F7.2)                    
 500                                                                      
 500 EXPECTED VALUES: GJ KLEYWEGT AND TA JONES (1996). PHI/PSI-           
 500 CHOLOGY: RAMACHANDRAN REVISITED. STRUCTURE 4, 1395 - 1400            
 500                                                                      
 500  M RES CSSEQI        PSI       PHI                                   
 500    MET A  69     -144.48     52.96                                   
 500    TYR A 105       74.56     66.03                                   
 500    LEU A 220     -128.95    -99.05                                   
 500    LEU A 220     -128.95   -105.36                                   
 500                                                                      
 500 REMARK: NULL                                                         
 800                                                                      
 800 SITE                                                                 
 800 SITE_IDENTIFIER: AC1                                                 
 800 EVIDENCE_CODE: SOFTWARE                                              
 800 SITE_DESCRIPTION: BINDING SITE FOR RESIDUE K A 1000                  
 800                                                                      
 800 SITE_IDENTIFIER: AC2                                                 
 800 EVIDENCE_CODE: SOFTWARE                                              
 800 SITE_DESCRIPTION: BINDING SITE FOR RESIDUE K A 1001                  
 800                                                                      
 800 SITE_IDENTIFIER: AC3                                                 
 800 EVIDENCE_CODE: SOFTWARE                                              
 800 SITE_DESCRIPTION: BINDING SITE FOR RESIDUE K A 1003                  
 800                                                                      
 800 SITE_IDENTIFIER: AC4                                                 
 800 EVIDENCE_CODE: SOFTWARE                                              
 800 SITE_DESCRIPTION: BINDING SITE FOR RESIDUE PO4 A 1501                
 800                                                                      
 800 SITE_IDENTIFIER: AC5                                                 
 800 EVIDENCE_CODE: SOFTWARE                                              
 800 SITE_DESCRIPTION: BINDING SITE FOR RESIDUE PO4 A 1502                
 800                                                                      
 800 SITE_IDENTIFIER: AC6                                                 
 800 EVIDENCE_CODE: SOFTWARE                                              
 800 SITE_DESCRIPTION: BINDING SITE FOR RESIDUE CXB A 300                 

>  <DBREF>
 1NYM A   26   290  UNP    P62593   BLAT_ECOLI      24    286             

>  <SEQADV>
 1NYM THR A  182  UNP  P62593    MET   180 ENGINEERED MUTATION            

>  <SEQRES>
   1 A  263  HIS PRO GLU THR LEU VAL LYS VAL LYS ASP ALA GLU ASP          
   2 A  263  GLN LEU GLY ALA ARG VAL GLY TYR ILE GLU LEU ASP LEU          
   3 A  263  ASN SER GLY LYS ILE LEU GLU SER PHE ARG PRO GLU GLU          
   4 A  263  ARG PHE PRO MET MET SER THR PHE LYS VAL LEU LEU CYS          
   5 A  263  GLY ALA VAL LEU SER ARG VAL ASP ALA GLY GLN GLU GLN          
   6 A  263  LEU GLY ARG ARG ILE HIS TYR SER GLN ASN ASP LEU VAL          
   7 A  263  GLU TYR SER PRO VAL THR GLU LYS HIS LEU THR ASP GLY          
   8 A  263  MET THR VAL ARG GLU LEU CYS SER ALA ALA ILE THR MET          
   9 A  263  SER ASP ASN THR ALA ALA ASN LEU LEU LEU THR THR ILE          
  10 A  263  GLY GLY PRO LYS GLU LEU THR ALA PHE LEU HIS ASN MET          
  11 A  263  GLY ASP HIS VAL THR ARG LEU ASP ARG TRP GLU PRO GLU          
  12 A  263  LEU ASN GLU ALA ILE PRO ASN ASP GLU ARG ASP THR THR          
  13 A  263  THR PRO ALA ALA MET ALA THR THR LEU ARG LYS LEU LEU          
  14 A  263  THR GLY GLU LEU LEU THR LEU ALA SER ARG GLN GLN LEU          
  15 A  263  ILE ASP TRP MET GLU ALA ASP LYS VAL ALA GLY PRO LEU          
  16 A  263  LEU ARG SER ALA LEU PRO ALA GLY TRP PHE ILE ALA ASP          
  17 A  263  LYS SER GLY ALA GLY GLU ARG GLY SER ARG GLY ILE ILE          
  18 A  263  ALA ALA LEU GLY PRO ASP GLY LYS PRO SER ARG ILE VAL          
  19 A  263  VAL ILE TYR THR THR GLY SER GLN ALA THR MET ASP GLU          
  20 A  263  ARG ASN ARG GLN ILE ALA GLU ILE GLY ALA SER LEU ILE          
  21 A  263  LYS HIS TRP                                                  

>  <HET>
   K  A1000       1                                                       
   K  A1001       1                                                       
   K  A1003       1                                                       
 PO4  A1501       5                                                       
 PO4  A1502       5                                                       
 CXB  A 300      17                                                       

>  <HETNAM>
       K POTASSIUM ION                                                    
     PO4 PHOSPHATE ION                                                    
     CXB [(2-AMINO-ALPHA-METHOXYIMINO-4-THIAZOLYLACETYL)                  
   2 CXB  AMINO]METHYLBORONIC ACID                                        

>  <FORMUL>
   2    K    3(K 1+)                                                      
   5  PO4    2(O4 P 3-)                                                   
   7  CXB    C7 H11 B N4 O4 S                                             
   8  HOH   *436(H2 O)                                                    

>  <HELIX>
   1   1 HIS A   26  GLY A   41  1                                  16    
   2   2 THR A   71  ALA A   86  1                                  16    
   3   3 SER A   98  LEU A  102  5                                   5    
   4   4 VAL A  108  HIS A  112  5                                   5    
   5   5 VAL A  119  MET A  129  1                                  11    
   6   6 ASP A  131  GLY A  143  1                                  13    
   7   7 GLY A  144  MET A  155  1                                  12    
   8   8 PRO A  167  GLU A  171  5                                   5    
   9   9 THR A  182  GLY A  196  1                                  15    
  10  10 THR A  200  ALA A  213  1                                  14    
  11  11 LEU A  220  LEU A  225  5                                   6    
  12  12 THR A  271  HIS A  289  1                                  19    

>  <SHEET>
   1   A 5 ILE A  56  PHE A  60  0                                        
   2   A 5 ARG A  43  ASP A  50 -1  N  TYR A  46   O  PHE A  60           
   3   A 5 ARG A 259  THR A 266 -1  O  TYR A 264   N  GLY A  45           
   4   A 5 ARG A 244  GLY A 251 -1  N  ILE A 246   O  ILE A 263           
   5   A 5 PHE A 230  ALA A 237 -1  N  PHE A 230   O  GLY A 251           
   1   B 2 PHE A  66  PRO A  67  0                                        
   2   B 2 THR A 180  THR A 181 -1  O  THR A 181   N  PHE A  66           
   1   C 2 ARG A  94  ILE A  95  0                                        
   2   C 2 MET A 117  THR A 118 -1  O  MET A 117   N  ILE A  95           

>  <SSBOND>
   1 CYS A   77    CYS A  123                          1555   1555  2.07  

>  <CISPEP>
   1 GLU A  166    PRO A  167          0         4.87                     

>  <SITE>
   1 AC1  6 LEU A  57  GLU A  58  ASN A 100  HOH A1653                    
   2 AC1  6 HOH A1673  HOH A1705                                          
   1 AC2  5 TYR A  97  LEU A 113  HOH A1593  HOH A1640                    
   2 AC2  5 HOH A1690                                                     
   1 AC3  4 MET A 211  ALA A 213  ASP A 214  ASP A 233                    
   1 AC4 11 ASP A 115  ARG A 275  CXB A 300  HOH A1518                    
   2 AC4 11 HOH A1522  HOH A1534  HOH A1551  HOH A1564                    
   3 AC4 11 HOH A1633  HOH A1675  HOH A1738                               
   1 AC5  7 LEU A  91  GLY A  92  ARG A 120  HOH A1608                    
   2 AC5  7 HOH A1897  HOH A1899  HOH A1905                               
   1 AC6 16 MET A  69  SER A  70  LYS A  73  TYR A 105                    
   2 AC6 16 SER A 130  ASN A 132  GLY A 236  ALA A 237                    
   3 AC6 16 GLY A 238  GLU A 240  PO4 A1501  HOH A1571                    
   4 AC6 16 HOH A1624  HOH A1633  HOH A1636  HOH A1898                    

>  <ORIGX1>
      1.000000  0.000000  0.000000        0.00000                         

>  <ORIGX2>
      0.000000  1.000000  0.000000        0.00000                         

>  <ORIGX3>
      0.000000  0.000000  1.000000        0.00000                         

>  <SCALE1>
      0.024187  0.000000  0.000000        0.00000                         

>  <SCALE2>
      0.000000  0.016218  0.000000        0.00000                         

>  <SCALE3>
      0.000000  0.000000  0.011220        0.00000                         

>  <ANISOU>
  449  N   SER A  70     1084   1555    951    -57     41    244       N  
  450  CA  SER A  70     1004   1471    997   -235      9    119       C  
  451  C   SER A  70     1151   1339    762    -85     10     73       C  
  452  O   SER A  70     1019   1494   1042    -84    111     81       O  
  453  CB  SER A  70     1221   1641    897   -227     24    -48       C  
  454  OG  SER A  70     1156   1583   1016   -104     80    -54       O  
 2449  C18 CXB A 300     5962   7555   3899   3487   1188  -1535       C  
 2450  O17 CXB A 300     2964   3159   5186   -219   1023    122       O  
 2451  N16 CXB A 300     2555   2654   4731   -240    938   1122       N  
 2452  C13 CXB A 300     1909   2241   2293   -719    137     63       C  
 2453  C11 CXB A 300     1696   2466   1248   -884      2   -150       C  
 2454  O12 CXB A 300     2070   3038   1337   -939    -75    -33       O  
 2455  N10 CXB A 300     2006   2062   1126   -628   -124    -11       N  
 2456  C7  CXB A 300     1498   1752   1133   -586    119     43       C  
 2457  B   CXB A 300     1482   1628   1021   -271     39     37       B  
 2458  OB1 CXB A 300     1401   1640   1035   -248    133     43       O  
 2459  OB2 CXB A 300     1413   1718   1522     18     39    296       O  
 2460  C14 CXB A 300     1804   2160   1595   -732    108     91       C  
 2461  C15 CXB A 300     1759   2398   1278   -454    184   -133       C  
 2462  S16 CXB A 300     2033   2545   2165   -391    271   -178       S  
 2463  C17 CXB A 300     2121   2048   2558   -688    490   -104       C  
 2464  N18 CXB A 300     2264   3491   2821   -997    608    212       N  
 2465  N19 CXB A 300     1900   2665   2360   -770    113    408       N  

>  <MASTER>
      257    0    6   12    9    0   14    6 2492    1   29   21          

$$$$
