start_structures/Ligand_Substrate/Ligand_Complex_Stripped/CXU_1FCM.pdb
 OpenBabel08222315203D

 35 37  0  0  1  0  0  0  0  0999 V2000
   26.5210    1.8830   16.1310 N   0  0  0  0  0  0  0  0  0  0  0  0
   27.8270    2.4320   16.4620 C   0  0  2  0  0  0  0  0  0  0  0  0
   28.7910    1.5120   17.2080 C   0  0  0  0  0  0  0  0  0  0  0  0
   30.0000    1.7570   17.2060 O   0  0  0  0  0  0  0  0  0  0  0  0
   27.7080    3.8060   17.0830 C   0  0  0  0  0  0  0  0  0  0  0  0
   27.5360    4.7530   16.0400 O   0  0  0  0  0  0  0  0  0  0  0  0
   22.4560    9.6230   13.7740 Cl  0  0  0  0  0  0  0  0  0  0  0  0
   26.2100    5.1670   15.9680 C   0  0  0  0  0  0  0  0  0  0  0  0
   25.3260    4.4460   16.4150 O   0  0  0  0  0  0  0  0  0  0  0  0
   25.8990    6.5450   15.3360 C   0  0  1  0  0  0  0  0  0  0  0  0
   24.5110    6.6290   14.7740 N   0  0  0  0  0  0  0  0  0  0  0  0
   26.2840    7.6130   16.4240 C   0  0  1  0  0  0  0  0  0  0  0  0
   25.0970    8.9920   16.7070 S   0  0  0  0  0  0  0  0  0  0  0  0
   24.9880    8.7150   18.5190 C   0  0  0  0  0  0  0  0  0  0  0  0
   25.3550    7.1870   18.5840 C   0  0  1  0  0  0  0  0  0  0  0  0
   26.5140    7.0170   17.7420 N   0  0  0  0  0  0  0  0  0  0  0  0
   25.5670    6.5400   19.9590 C   0  0  0  0  0  0  0  0  0  0  0  0
   24.2700    6.3470   13.6500 C   0  0  0  0  0  0  0  0  0  0  0  0
   25.1780    6.1820   12.7950 O   0  0  0  0  0  0  0  0  0  0  0  0
   22.8520    6.1820   13.2070 C   0  0  0  0  0  0  0  0  0  0  0  0
   22.2840    5.5470   12.1590 C   0  0  0  0  0  0  0  0  0  0  0  0
   20.9850    5.5810   12.0420 O   0  0  0  0  0  0  0  0  0  0  0  0
   20.5320    6.3340   13.1500 N   0  0  0  0  0  0  0  0  0  0  0  0
   21.5850    6.6900   13.8380 C   0  0  0  0  0  0  0  0  0  0  0  0
   23.1240    4.8180   11.1340 C   0  0  0  0  0  0  0  0  0  0  0  0
   21.2080    7.5250   15.0620 C   0  0  0  0  0  0  0  0  0  0  0  0
   21.5720    8.8990   15.1230 C   0  0  0  0  0  0  0  0  0  0  0  0
   21.2430    9.7050   16.2440 C   0  0  0  0  0  0  0  0  0  0  0  0
   20.5380    9.1280   17.3470 C   0  0  0  0  0  0  0  0  0  0  0  0
   20.1670    7.7350   17.3050 C   0  0  0  0  0  0  0  0  0  0  0  0
   20.5030    6.9320   16.1590 C   0  0  0  0  0  0  0  0  0  0  0  0
   23.5320    9.0460   18.9820 C   0  0  0  0  0  0  0  0  0  0  0  0
   25.9660    9.6800   19.2510 C   0  0  0  0  0  0  0  0  0  0  0  0
   26.6480    6.8080   20.6310 O   0  0  0  0  0  0  0  0  0  0  0  0
   24.6680    5.7120   20.3900 O   0  0  0  0  0  0  0  0  0  0  0  0
  2  1  1  1  0  0  0
  2  5  1  0  0  0  0
  2  3  1  0  0  0  0
  4  3  2  0  0  0  0
  6  8  1  0  0  0  0
  6  5  1  0  0  0  0
  7 27  1  0  0  0  0
  8  9  2  0  0  0  0
 10  8  1  1  0  0  0
 10 11  1  0  0  0  0
 11 18  1  0  0  0  0
 12 10  1  6  0  0  0
 12 13  1  0  0  0  0
 12 16  1  0  0  0  0
 13 14  1  0  0  0  0
 14 15  1  0  0  0  0
 14 32  1  0  0  0  0
 14 33  1  0  0  0  0
 15 16  1  0  0  0  0
 15 17  1  1  0  0  0
 17 34  2  0  0  0  0
 17 35  1  0  0  0  0
 18 19  2  0  0  0  0
 18 20  1  0  0  0  0
 20 21  2  0  0  0  0
 20 24  1  0  0  0  0
 21 22  1  0  0  0  0
 21 25  1  0  0  0  0
 22 23  1  0  0  0  0
 23 24  2  0  0  0  0
 24 26  1  0  0  0  0
 26 27  2  0  0  0  0
 26 31  1  0  0  0  0
 27 28  1  0  0  0  0
 28 29  2  0  0  0  0
 29 30  1  0  0  0  0
 30 31  2  0  0  0  0
M  END
>  <HEADER>
    HYDROLASE/ANTIBIOTIC                    18-JUL-00   1FCM              

>  <TITLE>
    CRYSTAL STRUCTURE OF THE E.COLI AMPC BETA-LACTAMASE MUTANT Q120L/Y150E
   2 COVALENTLY ACYLATED WITH THE INHIBITORY BETA-LACTAM, CLOXACILLIN     

>  <COMPND>
    MOL_ID: 1;                                                            
   2 MOLECULE: BETA-LACTAMASE;                                            
   3 CHAIN: A, B;                                                         
   4 SYNONYM: CEPHALOSPORINASE, AMPC BETA-LACTAMASE;                      
   5 EC: 3.5.2.6;                                                         
   6 ENGINEERED: YES;                                                     
   7 MUTATION: YES;                                                       
   8 OTHER_DETAILS: INHIBITOR CLOXACILLIN, RESIDUE CXU, BINDS TO SER 61 BY
   9 BREAKING ITS C1-N1 LACTAM BOND                                       

>  <SOURCE>
    MOL_ID: 1;                                                            
   2 ORGANISM_SCIENTIFIC: ESCHERICHIA COLI;                               
   3 ORGANISM_TAXID: 562;                                                 
   4 EXPRESSION_SYSTEM: ESCHERICHIA COLI;                                 
   5 EXPRESSION_SYSTEM_TAXID: 562;                                        
   6 EXPRESSION_SYSTEM_VECTOR_TYPE: PLASMID;                              
   7 EXPRESSION_SYSTEM_PLASMID: POGO295                                   

>  <KEYWDS>
    BETA-LACTAMASE BETA-LACTAM COMPLEX, ENZYME INHIBITOR COMPLEX,         
   2 HYDROLASE-ANTIBIOTIC COMPLEX                                         

>  <EXPDTA>
    X-RAY DIFFRACTION                                                     

>  <AUTHOR>
    A.PATERA,L.C.BLASZCZAK,B.K.SHOICHET                                   

>  <REVDAT>
   6   03-NOV-21 1FCM    1       REMARK SEQADV LINK                       
   5   31-JAN-18 1FCM    1       REMARK                                   
   4   24-AUG-11 1FCM    1       HEADER HET    HETATM HETNAM              
   4 2                   1       HETSYN VERSN                             
   3   24-FEB-09 1FCM    1       VERSN                                    
   2   18-DEC-00 1FCM    1       REMARK                                   
   1   04-DEC-00 1FCM    0                                                

>  <JRNL>
      AUTH   A.PATERA,L.C.BLASZCZAK,B.K.SHOICHET                          
      TITL   CRYSTAL STRUCTURES OF SUBSTRATE AND INHIBITOR COMPLEXES WITH 
      TITL 2 AMPC -LACTAMASE: POSSIBLE IMPLICATIONS FOR                   
      TITL 3 SUBSTRATE-ASSISTED CATALYSIS                                 
      REF    J.AM.CHEM.SOC.                V. 122 10504 2000              
      REFN                   ISSN 0002-7863                               
      DOI    10.1021/JA001676X                                            

>  <REMARK>
   2                                                                      
   2 RESOLUTION.    2.46 ANGSTROMS.                                       
   3                                                                      
   3 REFINEMENT.                                                          
   3   PROGRAM     : X-PLOR                                               
   3   AUTHORS     : BRUNGER                                              
   3                                                                      
   3  DATA USED IN REFINEMENT.                                            
   3   RESOLUTION RANGE HIGH (ANGSTROMS) : 2.46                           
   3   RESOLUTION RANGE LOW  (ANGSTROMS) : 20.00                          
   3   DATA CUTOFF            (SIGMA(F)) : 0.000                          
   3   DATA CUTOFF HIGH         (ABS(F)) : NULL                           
   3   DATA CUTOFF LOW          (ABS(F)) : NULL                           
   3   COMPLETENESS (WORKING+TEST)   (%) : 92.9                           
   3   NUMBER OF REFLECTIONS             : 26484                          
   3                                                                      
   3  FIT TO DATA USED IN REFINEMENT.                                     
   3   CROSS-VALIDATION METHOD          : THROUGHOUT                      
   3   FREE R VALUE TEST SET SELECTION  : RANDOM                          
   3   R VALUE            (WORKING SET) : 0.207                           
   3   FREE R VALUE                     : 0.265                           
   3   FREE R VALUE TEST SET SIZE   (%) : 10.000                          
   3   FREE R VALUE TEST SET COUNT      : 2683                            
   3   ESTIMATED ERROR OF FREE R VALUE  : NULL                            
   3                                                                      
   3  FIT IN THE HIGHEST RESOLUTION BIN.                                  
   3   TOTAL NUMBER OF BINS USED           : NULL                         
   3   BIN RESOLUTION RANGE HIGH       (A) : NULL                         
   3   BIN RESOLUTION RANGE LOW        (A) : NULL                         
   3   BIN COMPLETENESS (WORKING+TEST) (%) : NULL                         
   3   REFLECTIONS IN BIN    (WORKING SET) : NULL                         
   3   BIN R VALUE           (WORKING SET) : NULL                         
   3   BIN FREE R VALUE                    : NULL                         
   3   BIN FREE R VALUE TEST SET SIZE  (%) : NULL                         
   3   BIN FREE R VALUE TEST SET COUNT     : NULL                         
   3   ESTIMATED ERROR OF BIN FREE R VALUE : NULL                         
   3                                                                      
   3  NUMBER OF NON-HYDROGEN ATOMS USED IN REFINEMENT.                    
   3   PROTEIN ATOMS            : 5542                                    
   3   NUCLEIC ACID ATOMS       : 0                                       
   3   HETEROGEN ATOMS          : 58                                      
   3   SOLVENT ATOMS            : 132                                     
   3                                                                      
   3  B VALUES.                                                           
   3   FROM WILSON PLOT           (A**2) : NULL                           
   3   MEAN B VALUE      (OVERALL, A**2) : NULL                           
   3   OVERALL ANISOTROPIC B VALUE.                                       
   3    B11 (A**2) : -2.29000                                             
   3    B22 (A**2) : 6.56600                                              
   3    B33 (A**2) : -4.27600                                             
   3    B12 (A**2) : 0.00000                                              
   3    B13 (A**2) : -8.93500                                             
   3    B23 (A**2) : 0.00000                                              
   3                                                                      
   3  ESTIMATED COORDINATE ERROR.                                         
   3   ESD FROM LUZZATI PLOT        (A) : NULL                            
   3   ESD FROM SIGMAA              (A) : NULL                            
   3   LOW RESOLUTION CUTOFF        (A) : NULL                            
   3                                                                      
   3  CROSS-VALIDATED ESTIMATED COORDINATE ERROR.                         
   3   ESD FROM C-V LUZZATI PLOT    (A) : NULL                            
   3   ESD FROM C-V SIGMAA          (A) : NULL                            
   3                                                                      
   3  RMS DEVIATIONS FROM IDEAL VALUES.                                   
   3   BOND LENGTHS                 (A) : NULL                            
   3   BOND ANGLES            (DEGREES) : NULL                            
   3   DIHEDRAL ANGLES        (DEGREES) : NULL                            
   3   IMPROPER ANGLES        (DEGREES) : NULL                            
   3                                                                      
   3  ISOTROPIC THERMAL MODEL : NULL                                      
   3                                                                      
   3  ISOTROPIC THERMAL FACTOR RESTRAINTS.    RMS    SIGMA                
   3   MAIN-CHAIN BOND              (A**2) : NULL  ; NULL                 
   3   MAIN-CHAIN ANGLE             (A**2) : NULL  ; NULL                 
   3   SIDE-CHAIN BOND              (A**2) : NULL  ; NULL                 
   3   SIDE-CHAIN ANGLE             (A**2) : NULL  ; NULL                 
   3                                                                      
   3  NCS MODEL : NULL                                                    
   3                                                                      
   3  NCS RESTRAINTS.                         RMS   SIGMA/WEIGHT          
   3   GROUP  1  POSITIONAL            (A) : NULL  ; NULL                 
   3   GROUP  1  B-FACTOR           (A**2) : NULL  ; NULL                 
   3                                                                      
   3  PARAMETER FILE  1  : NULL                                           
   3  TOPOLOGY FILE  1   : NULL                                           
   3                                                                      
   3  OTHER REFINEMENT REMARKS: NULL                                      
   4                                                                      
   4 1FCM COMPLIES WITH FORMAT V. 3.30, 13-JUL-11                         
 100                                                                      
 100 THIS ENTRY HAS BEEN PROCESSED BY RCSB ON 10-AUG-00.                  
 100 THE DEPOSITION ID IS D_1000011480.                                   
 200                                                                      
 200 EXPERIMENTAL DETAILS                                                 
 200  EXPERIMENT TYPE                : X-RAY DIFFRACTION                  
 200  DATE OF DATA COLLECTION        : NULL                               
 200  TEMPERATURE           (KELVIN) : 106                                
 200  PH                             : 8.7                                
 200  NUMBER OF CRYSTALS USED        : 1                                  
 200                                                                      
 200  SYNCHROTRON              (Y/N) : NULL                               
 200  RADIATION SOURCE               : NULL                               
 200  BEAMLINE                       : NULL                               
 200  X-RAY GENERATOR MODEL          : NULL                               
 200  MONOCHROMATIC OR LAUE    (M/L) : M                                  
 200  WAVELENGTH OR RANGE        (A) : NULL                               
 200  MONOCHROMATOR                  : NULL                               
 200  OPTICS                         : NULL                               
 200                                                                      
 200  DETECTOR TYPE                  : NULL                               
 200  DETECTOR MANUFACTURER          : NULL                               
 200  INTENSITY-INTEGRATION SOFTWARE : NULL                               
 200  DATA SCALING SOFTWARE          : NULL                               
 200                                                                      
 200  NUMBER OF UNIQUE REFLECTIONS   : NULL                               
 200  RESOLUTION RANGE HIGH      (A) : 2.460                              
 200  RESOLUTION RANGE LOW       (A) : 20.000                             
 200  REJECTION CRITERIA  (SIGMA(I)) : NULL                               
 200                                                                      
 200 OVERALL.                                                             
 200  COMPLETENESS FOR RANGE     (%) : NULL                               
 200  DATA REDUNDANCY                : NULL                               
 200  R MERGE                    (I) : NULL                               
 200  R SYM                      (I) : NULL                               
 200  <I/SIGMA(I)> FOR THE DATA SET  : 12.4000                            
 200                                                                      
 200 IN THE HIGHEST RESOLUTION SHELL.                                     
 200  HIGHEST RESOLUTION SHELL, RANGE HIGH (A) : NULL                     
 200  HIGHEST RESOLUTION SHELL, RANGE LOW  (A) : NULL                     
 200  COMPLETENESS FOR SHELL     (%) : NULL                               
 200  DATA REDUNDANCY IN SHELL       : NULL                               
 200  R MERGE FOR SHELL          (I) : NULL                               
 200  R SYM FOR SHELL            (I) : NULL                               
 200  <I/SIGMA(I)> FOR SHELL         : NULL                               
 200                                                                      
 200 DIFFRACTION PROTOCOL: SINGLE WAVELENGTH                              
 200 METHOD USED TO DETERMINE THE STRUCTURE: NULL                         
 200 SOFTWARE USED: NULL                                                  
 200 STARTING MODEL: NULL                                                 
 200                                                                      
 200 REMARK: NULL                                                         
 280                                                                      
 280 CRYSTAL                                                              
 280 SOLVENT CONTENT, VS   (%): 50.90                                     
 280 MATTHEWS COEFFICIENT, VM (ANGSTROMS**3/DA): 2.51                     
 280                                                                      
 280 CRYSTALLIZATION CONDITIONS: 1.7 M POTASSIUM PHOSPHATE, PH 8.7,       
 280  VAPOR DIFFUSION, HANGING DROP, TEMPERATURE 106K                     
 290                                                                      
 290 CRYSTALLOGRAPHIC SYMMETRY                                            
 290 SYMMETRY OPERATORS FOR SPACE GROUP: C 1 2 1                          
 290                                                                      
 290      SYMOP   SYMMETRY                                                
 290     NNNMMM   OPERATOR                                                
 290       1555   X,Y,Z                                                   
 290       2555   -X,Y,-Z                                                 
 290       3555   X+1/2,Y+1/2,Z                                           
 290       4555   -X+1/2,Y+1/2,-Z                                         
 290                                                                      
 290     WHERE NNN -> OPERATOR NUMBER                                     
 290           MMM -> TRANSLATION VECTOR                                  
 290                                                                      
 290 CRYSTALLOGRAPHIC SYMMETRY TRANSFORMATIONS                            
 290 THE FOLLOWING TRANSFORMATIONS OPERATE ON THE ATOM/HETATM             
 290 RECORDS IN THIS ENTRY TO PRODUCE CRYSTALLOGRAPHICALLY                
 290 RELATED MOLECULES.                                                   
 290   SMTRY1   1  1.000000  0.000000  0.000000        0.00000            
 290   SMTRY2   1  0.000000  1.000000  0.000000        0.00000            
 290   SMTRY3   1  0.000000  0.000000  1.000000        0.00000            
 290   SMTRY1   2 -1.000000  0.000000  0.000000        0.00000            
 290   SMTRY2   2  0.000000  1.000000  0.000000        0.00000            
 290   SMTRY3   2  0.000000  0.000000 -1.000000        0.00000            
 290   SMTRY1   3  1.000000  0.000000  0.000000       59.26000            
 290   SMTRY2   3  0.000000  1.000000  0.000000       38.09500            
 290   SMTRY3   3  0.000000  0.000000  1.000000        0.00000            
 290   SMTRY1   4 -1.000000  0.000000  0.000000       59.26000            
 290   SMTRY2   4  0.000000  1.000000  0.000000       38.09500            
 290   SMTRY3   4  0.000000  0.000000 -1.000000        0.00000            
 290                                                                      
 290 REMARK: NULL                                                         
 300                                                                      
 300 BIOMOLECULE: 1, 2                                                    
 300 SEE REMARK 350 FOR THE AUTHOR PROVIDED AND/OR PROGRAM                
 300 GENERATED ASSEMBLY INFORMATION FOR THE STRUCTURE IN                  
 300 THIS ENTRY. THE REMARK MAY ALSO PROVIDE INFORMATION ON               
 300 BURIED SURFACE AREA.                                                 
 350                                                                      
 350 COORDINATES FOR A COMPLETE MULTIMER REPRESENTING THE KNOWN           
 350 BIOLOGICALLY SIGNIFICANT OLIGOMERIZATION STATE OF THE                
 350 MOLECULE CAN BE GENERATED BY APPLYING BIOMT TRANSFORMATIONS          
 350 GIVEN BELOW.  BOTH NON-CRYSTALLOGRAPHIC AND                          
 350 CRYSTALLOGRAPHIC OPERATIONS ARE GIVEN.                               
 350                                                                      
 350 BIOMOLECULE: 1                                                       
 350 AUTHOR DETERMINED BIOLOGICAL UNIT: MONOMERIC                         
 350 APPLY THE FOLLOWING TO CHAINS: A                                     
 350   BIOMT1   1  1.000000  0.000000  0.000000        0.00000            
 350   BIOMT2   1  0.000000  1.000000  0.000000        0.00000            
 350   BIOMT3   1  0.000000  0.000000  1.000000        0.00000            
 350                                                                      
 350 BIOMOLECULE: 2                                                       
 350 AUTHOR DETERMINED BIOLOGICAL UNIT: MONOMERIC                         
 350 APPLY THE FOLLOWING TO CHAINS: B                                     
 350   BIOMT1   1  1.000000  0.000000  0.000000        0.00000            
 350   BIOMT2   1  0.000000  1.000000  0.000000        0.00000            
 350   BIOMT3   1  0.000000  0.000000  1.000000        0.00000            
 465                                                                      
 465 MISSING RESIDUES                                                     
 465 THE FOLLOWING RESIDUES WERE NOT LOCATED IN THE                       
 465 EXPERIMENT. (M=MODEL NUMBER; RES=RESIDUE NAME; C=CHAIN               
 465 IDENTIFIER; SSSEQ=SEQUENCE NUMBER; I=INSERTION CODE.)                
 465                                                                      
 465   M RES C SSSEQI                                                     
 465     ILE A   281                                                      
 465     ASN A   282                                                      
 465     GLY A   283                                                      
 465     SER A   284                                                      
 465     ASP A   285                                                      
 465     ASN A   286                                                      
 470                                                                      
 470 MISSING ATOM                                                         
 470 THE FOLLOWING RESIDUES HAVE MISSING ATOMS (M=MODEL NUMBER;           
 470 RES=RESIDUE NAME; C=CHAIN IDENTIFIER; SSEQ=SEQUENCE NUMBER;          
 470 I=INSERTION CODE):                                                   
 470   M RES CSSEQI  ATOMS                                                
 470     GLN A 358    CG   CD   OE1  NE2                                  
 470     GLN B 358    CG   CD   OE1  NE2                                  
 500                                                                      
 500 GEOMETRY AND STEREOCHEMISTRY                                         
 500 SUBTOPIC: CLOSE CONTACTS IN SAME ASYMMETRIC UNIT                     
 500                                                                      
 500 THE FOLLOWING ATOMS ARE IN CLOSE CONTACT.                            
 500                                                                      
 500  ATM1  RES C  SSEQI   ATM2  RES C  SSEQI           DISTANCE          
 500   OD1  ASP B    84     OH   TYR B    89              2.05            
 500                                                                      
 500 REMARK: NULL                                                         
 500                                                                      
 500 GEOMETRY AND STEREOCHEMISTRY                                         
 500 SUBTOPIC: COVALENT BOND ANGLES                                       
 500                                                                      
 500 THE STEREOCHEMICAL PARAMETERS OF THE FOLLOWING RESIDUES              
 500 HAVE VALUES WHICH DEVIATE FROM EXPECTED VALUES BY MORE               
 500 THAN 6*RMSD (M=MODEL NUMBER; RES=RESIDUE NAME; C=CHAIN               
 500 IDENTIFIER; SSEQ=SEQUENCE NUMBER; I=INSERTION CODE).                 
 500                                                                      
 500 STANDARD TABLE:                                                      
 500 FORMAT: (10X,I3,1X,A3,1X,A1,I4,A1,3(1X,A4,2X),12X,F5.1)              
 500                                                                      
 500 EXPECTED VALUES PROTEIN: ENGH AND HUBER, 1999                        
 500 EXPECTED VALUES NUCLEIC ACID: CLOWNEY ET AL 1996                     
 500                                                                      
 500  M RES CSSEQI ATM1   ATM2   ATM3                                     
 500    GLY A 219   N   -  CA  -  C   ANGL. DEV. =  15.8 DEGREES          
 500    LEU A 238   CA  -  CB  -  CG  ANGL. DEV. = -14.2 DEGREES          
 500                                                                      
 500 REMARK: NULL                                                         
 500                                                                      
 500 GEOMETRY AND STEREOCHEMISTRY                                         
 500 SUBTOPIC: TORSION ANGLES                                             
 500                                                                      
 500 TORSION ANGLES OUTSIDE THE EXPECTED RAMACHANDRAN REGIONS:            
 500 (M=MODEL NUMBER; RES=RESIDUE NAME; C=CHAIN IDENTIFIER;               
 500 SSEQ=SEQUENCE NUMBER; I=INSERTION CODE).                             
 500                                                                      
 500 STANDARD TABLE:                                                      
 500 FORMAT:(10X,I3,1X,A3,1X,A1,I4,A1,4X,F7.2,3X,F7.2)                    
 500                                                                      
 500 EXPECTED VALUES: GJ KLEYWEGT AND TA JONES (1996). PHI/PSI-           
 500 CHOLOGY: RAMACHANDRAN REVISITED. STRUCTURE 4, 1395 - 1400            
 500                                                                      
 500  M RES CSSEQI        PSI       PHI                                   
 500    TRP A  90       77.34   -151.24                                   
 500    VAL A 175      -57.51   -126.16                                   
 500    ALA A 289      -17.31    -35.63                                   
 500    LEU A 290      105.53   -160.82                                   
 500    ALA A 304      128.58    -37.07                                   
 500    ALA A 307       44.58    -77.39                                   
 500    LYS A 312      128.93   -177.66                                   
 500    ASN A 338       49.96   -106.33                                   
 500    PRO A 342      118.87    -33.28                                   
 500    LYS B  48       35.81     39.13                                   
 500    TRP B  90       66.52   -151.46                                   
 500    LEU B  93       83.60    -67.11                                   
 500    LYS B 123      -72.90   -121.68                                   
 500    SER B 124      179.97    -59.40                                   
 500    VAL B 175      -61.93   -125.40                                   
 500    HIS B 183       42.63   -145.33                                   
 500    TYR B 218       11.54   -152.02                                   
 500    LYS B 236       69.02   -116.84                                   
 500    LYS B 312      122.71   -170.44                                   
 500    ASN B 338       51.84   -101.66                                   
 500                                                                      
 500 REMARK: NULL                                                         
 500                                                                      
 500 GEOMETRY AND STEREOCHEMISTRY                                         
 500 SUBTOPIC: PLANAR GROUPS                                              
 500                                                                      
 500 PLANAR GROUPS IN THE FOLLOWING RESIDUES HAVE A TOTAL                 
 500 RMS DISTANCE OF ALL ATOMS FROM THE BEST-FIT PLANE                    
 500 BY MORE THAN AN EXPECTED VALUE OF 6*RMSD, WITH AN                    
 500 RMSD 0.02 ANGSTROMS, OR AT LEAST ONE ATOM HAS                        
 500 AN RMSD GREATER THAN THIS VALUE                                      
 500 (M=MODEL NUMBER; RES=RESIDUE NAME; C=CHAIN IDENTIFIER;               
 500 SSEQ=SEQUENCE NUMBER; I=INSERTION CODE).                             
 500                                                                      
 500  M RES CSSEQI        RMS     TYPE                                    
 500    TYR A  89         0.07    SIDE CHAIN                              
 500                                                                      
 500 REMARK: NULL                                                         
 800                                                                      
 800 SITE                                                                 
 800 SITE_IDENTIFIER: AC1                                                 
 800 EVIDENCE_CODE: SOFTWARE                                              
 800 SITE_DESCRIPTION: BINDING SITE FOR RESIDUE CXU A 961                 
 800                                                                      
 800 SITE_IDENTIFIER: AC2                                                 
 800 EVIDENCE_CODE: SOFTWARE                                              
 800 SITE_DESCRIPTION: BINDING SITE FOR RESIDUE CXU B 961                 
 900                                                                      
 900 RELATED ENTRIES                                                      
 900 RELATED ID: 1FCN   RELATED DB: PDB                                   
 900 THE MUTANT PROTEIN Q120L/Y150E COMPLEXED WITH INHIBITOR LORACARBEF   
 900 RELATED ID: 1FCO   RELATED DB: PDB                                   
 900 THE MUTANT PROTEIN Q120L/Y150E COMPLEXED WITH MOXALACTAM DERIVATIVE  

>  <DBREF>
 1FCM A    1   358  UNP    P00811   AMPC_ECOLI      20    377             
 1FCM B    1   358  UNP    P00811   AMPC_ECOLI      20    377             

>  <SEQADV>
 1FCM LEU A  117  UNP  P00811    GLN   136 ENGINEERED MUTATION            
 1FCM GLU A  147  UNP  P00811    TYR   166 ENGINEERED MUTATION            
 1FCM LEU B  117  UNP  P00811    GLN   136 ENGINEERED MUTATION            
 1FCM GLU B  147  UNP  P00811    TYR   166 ENGINEERED MUTATION            

>  <SEQRES>
   1 A  358  ALA PRO GLN GLN ILE ASN ASP ILE VAL HIS ARG THR ILE          
   2 A  358  THR PRO LEU ILE GLU GLN GLN LYS ILE PRO GLY MET ALA          
   3 A  358  VAL ALA VAL ILE TYR GLN GLY LYS PRO TYR TYR PHE THR          
   4 A  358  TRP GLY TYR ALA ASP ILE ALA LYS LYS GLN PRO VAL THR          
   5 A  358  GLN GLN THR LEU PHE GLU LEU GLY SER VAL SER LYS THR          
   6 A  358  PHE THR GLY VAL LEU GLY GLY ASP ALA ILE ALA ARG GLY          
   7 A  358  GLU ILE LYS LEU SER ASP PRO THR THR LYS TYR TRP PRO          
   8 A  358  GLU LEU THR ALA LYS GLN TRP ASN GLY ILE THR LEU LEU          
   9 A  358  HIS LEU ALA THR TYR THR ALA GLY GLY LEU PRO LEU LEU          
  10 A  358  VAL PRO ASP GLU VAL LYS SER SER SER ASP LEU LEU ARG          
  11 A  358  PHE TYR GLN ASN TRP GLN PRO ALA TRP ALA PRO GLY THR          
  12 A  358  GLN ARG LEU GLU ALA ASN SER SER ILE GLY LEU PHE GLY          
  13 A  358  ALA LEU ALA VAL LYS PRO SER GLY LEU SER PHE GLU GLN          
  14 A  358  ALA MET GLN THR ARG VAL PHE GLN PRO LEU LYS LEU ASN          
  15 A  358  HIS THR TRP ILE ASN VAL PRO PRO ALA GLU GLU LYS ASN          
  16 A  358  TYR ALA TRP GLY TYR ARG GLU GLY LYS ALA VAL HIS VAL          
  17 A  358  SER PRO GLY ALA LEU ASP ALA GLU ALA TYR GLY VAL LYS          
  18 A  358  SER THR ILE GLU ASP MET ALA ARG TRP VAL GLN SER ASN          
  19 A  358  LEU LYS PRO LEU ASP ILE ASN GLU LYS THR LEU GLN GLN          
  20 A  358  GLY ILE GLN LEU ALA GLN SER ARG TYR TRP GLN THR GLY          
  21 A  358  ASP MET TYR GLN GLY LEU GLY TRP GLU MET LEU ASP TRP          
  22 A  358  PRO VAL ASN PRO ASP SER ILE ILE ASN GLY SER ASP ASN          
  23 A  358  LYS ILE ALA LEU ALA ALA ARG PRO VAL LYS ALA ILE THR          
  24 A  358  PRO PRO THR PRO ALA VAL ARG ALA SER TRP VAL HIS LYS          
  25 A  358  THR GLY ALA THR GLY GLY PHE GLY SER TYR VAL ALA PHE          
  26 A  358  ILE PRO GLU LYS GLU LEU GLY ILE VAL MET LEU ALA ASN          
  27 A  358  LYS ASN TYR PRO ASN PRO ALA ARG VAL ASP ALA ALA TRP          
  28 A  358  GLN ILE LEU ASN ALA LEU GLN                                  
   1 B  358  ALA PRO GLN GLN ILE ASN ASP ILE VAL HIS ARG THR ILE          
   2 B  358  THR PRO LEU ILE GLU GLN GLN LYS ILE PRO GLY MET ALA          
   3 B  358  VAL ALA VAL ILE TYR GLN GLY LYS PRO TYR TYR PHE THR          
   4 B  358  TRP GLY TYR ALA ASP ILE ALA LYS LYS GLN PRO VAL THR          
   5 B  358  GLN GLN THR LEU PHE GLU LEU GLY SER VAL SER LYS THR          
   6 B  358  PHE THR GLY VAL LEU GLY GLY ASP ALA ILE ALA ARG GLY          
   7 B  358  GLU ILE LYS LEU SER ASP PRO THR THR LYS TYR TRP PRO          
   8 B  358  GLU LEU THR ALA LYS GLN TRP ASN GLY ILE THR LEU LEU          
   9 B  358  HIS LEU ALA THR TYR THR ALA GLY GLY LEU PRO LEU LEU          
  10 B  358  VAL PRO ASP GLU VAL LYS SER SER SER ASP LEU LEU ARG          
  11 B  358  PHE TYR GLN ASN TRP GLN PRO ALA TRP ALA PRO GLY THR          
  12 B  358  GLN ARG LEU GLU ALA ASN SER SER ILE GLY LEU PHE GLY          
  13 B  358  ALA LEU ALA VAL LYS PRO SER GLY LEU SER PHE GLU GLN          
  14 B  358  ALA MET GLN THR ARG VAL PHE GLN PRO LEU LYS LEU ASN          
  15 B  358  HIS THR TRP ILE ASN VAL PRO PRO ALA GLU GLU LYS ASN          
  16 B  358  TYR ALA TRP GLY TYR ARG GLU GLY LYS ALA VAL HIS VAL          
  17 B  358  SER PRO GLY ALA LEU ASP ALA GLU ALA TYR GLY VAL LYS          
  18 B  358  SER THR ILE GLU ASP MET ALA ARG TRP VAL GLN SER ASN          
  19 B  358  LEU LYS PRO LEU ASP ILE ASN GLU LYS THR LEU GLN GLN          
  20 B  358  GLY ILE GLN LEU ALA GLN SER ARG TYR TRP GLN THR GLY          
  21 B  358  ASP MET TYR GLN GLY LEU GLY TRP GLU MET LEU ASP TRP          
  22 B  358  PRO VAL ASN PRO ASP SER ILE ILE ASN GLY SER ASP ASN          
  23 B  358  LYS ILE ALA LEU ALA ALA ARG PRO VAL LYS ALA ILE THR          
  24 B  358  PRO PRO THR PRO ALA VAL ARG ALA SER TRP VAL HIS LYS          
  25 B  358  THR GLY ALA THR GLY GLY PHE GLY SER TYR VAL ALA PHE          
  26 B  358  ILE PRO GLU LYS GLU LEU GLY ILE VAL MET LEU ALA ASN          
  27 B  358  LYS ASN TYR PRO ASN PRO ALA ARG VAL ASP ALA ALA TRP          
  28 B  358  GLN ILE LEU ASN ALA LEU GLN                                  

>  <HET>
 CXU  A 961      29                                                       
 CXU  B 961      29                                                       

>  <HETNAM>
     CXU CLOXACILLIN (OPEN FORM)                                          

>  <HETSYN>
     CXU (2R,4S)-2-[(1R)-1-({[3-(2-CHLOROPHENYL)-5-METHYL-1,2-            
   2 CXU  OXAZOL-4-YL]CARBONYL}AMINO)-2-OXOETHYL]-5,5-DIMETHYL-           
   3 CXU  1,3-THIAZOLIDINE-4-CARBOXYLIC ACID                              

>  <FORMUL>
   3  CXU    2(C19 H20 CL N3 O5 S)                                        
   5  HOH   *132(H2 O)                                                    

>  <HELIX>
   1   1 PRO A    2  LYS A   21  1                                  20    
   2   2 VAL A   62  ARG A   77  1                                  16    
   3   3 THR A   86  TYR A   89  5                                   4    
   4   4 ALA A   95  ASN A   99  5                                   5    
   5   5 THR A  102  THR A  108  1                                   7    
   6   6 SER A  124  TRP A  135  1                                  12    
   7   7 ALA A  148  VAL A  160  1                                  13    
   8   8 SER A  166  VAL A  175  1                                  10    
   9   9 PRO A  189  ASN A  195  5                                   7    
  10  10 LEU A  213  TYR A  218  1                                   6    
  11  11 THR A  223  LYS A  236  1                                  14    
  12  12 PRO A  237  ILE A  240  5                                   4    
  13  13 GLU A  242  GLN A  253  1                                  12    
  14  14 PRO A  342  ALA A  356  1                                  15    
  15  15 PRO B    2  GLN B   20  1                                  19    
  16  16 VAL B   62  ARG B   77  1                                  16    
  17  17 THR B   86  TYR B   89  5                                   4    
  18  18 ALA B   95  ASN B   99  5                                   5    
  19  19 THR B  102  THR B  108  1                                   7    
  20  20 SER B  124  TRP B  135  1                                  12    
  21  21 ALA B  148  VAL B  160  1                                  13    
  22  22 SER B  166  VAL B  175  1                                  10    
  23  23 PRO B  189  GLU B  193  5                                   5    
  24  24 LEU B  213  GLY B  219  1                                   7    
  25  25 THR B  223  LYS B  236  1                                  14    
  26  26 PRO B  237  ILE B  240  5                                   4    
  27  27 GLU B  242  GLN B  253  1                                  12    
  28  28 ASN B  276  ASN B  282  1                                   7    
  29  29 ASP B  285  LEU B  290  1                                   6    
  30  30 PRO B  327  LYS B  329  5                                   3    
  31  31 PRO B  342  LEU B  357  1                                  16    

>  <SHEET>
   1   A10 GLN A  49  PRO A  50  0                                        
   2   A10 LYS A  34  ASP A  44 -1  N  ALA A  43   O  GLN A  49           
   3   A10 GLY A  24  TYR A  31 -1  O  MET A  25   N  TRP A  40           
   4   A10 LEU A 331  ALA A 337 -1  O  GLY A 332   N  ILE A  30           
   5   A10 GLY A 320  ILE A 326 -1  O  GLY A 320   N  ALA A 337           
   6   A10 SER A 308  ALA A 315 -1  N  VAL A 310   O  PHE A 325           
   7   A10 GLU A 269  ASP A 272 -1  O  GLU A 269   N  HIS A 311           
   8   A10 MET A 262  GLN A 264 -1  N  TYR A 263   O  MET A 270           
   9   A10 ARG A 255  THR A 259 -1  N  TYR A 256   O  GLN A 264           
  10   A10 LYS A 296  THR A 302 -1  N  LYS A 296   O  GLN A 258           
   1   B 2 PHE A  57  GLU A  58  0                                        
   2   B 2 LYS A 221  SER A 222 -1  O  SER A 222   N  PHE A  57           
   1   C 2 GLN A 144  LEU A 146  0                                        
   2   C 2 ALA A 292  PRO A 294 -1  O  ARG A 293   N  ARG A 145           
   1   D 2 GLY A 199  ARG A 201  0                                        
   2   D 2 LYS A 204  VAL A 206 -1  O  LYS A 204   N  ARG A 201           
   1   E10 GLN B  49  PRO B  50  0                                        
   2   E10 LYS B  34  ASP B  44 -1  N  ALA B  43   O  GLN B  49           
   3   E10 GLY B  24  TYR B  31 -1  O  MET B  25   N  TRP B  40           
   4   E10 LEU B 331  ALA B 337 -1  O  GLY B 332   N  ILE B  30           
   5   E10 GLY B 320  ILE B 326 -1  N  GLY B 320   O  ALA B 337           
   6   E10 SER B 308  ALA B 315 -1  O  VAL B 310   N  PHE B 325           
   7   E10 GLU B 269  ASP B 272 -1  O  GLU B 269   N  HIS B 311           
   8   E10 MET B 262  GLN B 264 -1  N  TYR B 263   O  MET B 270           
   9   E10 ARG B 255  THR B 259 -1  N  TYR B 256   O  GLN B 264           
  10   E10 LYS B 296  THR B 302 -1  N  LYS B 296   O  GLN B 258           
   1   F 2 PHE B  57  GLU B  58  0                                        
   2   F 2 LYS B 221  SER B 222 -1  O  SER B 222   N  PHE B  57           
   1   G 2 GLN B 144  ARG B 145  0                                        
   2   G 2 ARG B 293  PRO B 294 -1  O  ARG B 293   N  ARG B 145           
   1   H 2 GLY B 199  ARG B 201  0                                        
   2   H 2 LYS B 204  VAL B 206 -1  O  LYS B 204   N  ARG B 201           

>  <LINK>
       OG  SER A  61                 C1  CXU A 961     1555   1555  1.39  
       OG  SER B  61                 C1  CXU B 961     1555   1555  1.39  

>  <CISPEP>
   1 TRP A  273    PRO A  274          0         0.84                     
   2 THR A  299    PRO A  300          0        -0.65                     
   3 TRP B  273    PRO B  274          0        -0.25                     
   4 THR B  299    PRO B  300          0         0.02                     

>  <SITE>
   1 AC1 13 SER A  61  LEU A 116  LEU A 117  GLU A 147                    
   2 AC1 13 ASN A 149  TYR A 218  THR A 313  GLY A 314                    
   3 AC1 13 ALA A 315  ASN A 340  ASN A 343  HOH A 964                    
   4 AC1 13 ALA B   1                                                     
   1 AC2 17 SER B  61  LEU B 117  GLU B 147  ASN B 149                    
   2 AC2 17 TYR B 218  ASN B 286  LYS B 312  THR B 313                    
   3 AC2 17 GLY B 314  ALA B 315  THR B 316  ASN B 340                    
   4 AC2 17 ASN B 343  HOH B 977  HOH B1007  HOH B1028                    
   5 AC2 17 HOH B1033                                                     

>  <ORIGX1>
      1.000000  0.000000  0.000000        0.00000                         

>  <ORIGX2>
      0.000000  1.000000  0.000000        0.00000                         

>  <ORIGX3>
      0.000000  0.000000  1.000000        0.00000                         

>  <SCALE1>
      0.008437  0.000000  0.004240        0.00000                         

>  <SCALE2>
      0.000000  0.013125  0.000000        0.00000                         

>  <SCALE3>
      0.000000  0.000000  0.011387        0.00000                         

>  <MASTER>
      325    0    2   31   32    0    9    6 5732    2   60   56          

$$$$
