start_structures/Ligand_Substrate/Ligand_Complex_Stripped/CZ7_3MKF.pdb
 OpenBabel08222315203D

 34 35  0  0  1  0  0  0  0  0999 V2000
   33.1010   60.9500    8.4410 N   0  0  0  0  0  0  0  0  0  0  0  0
   32.5780   59.7910    7.7230 C   0  0  2  0  0  0  0  0  0  0  0  0
   33.1330   58.4630    8.2090 C   0  0  0  0  0  0  0  0  0  0  0  0
   32.6880   57.4030    7.7660 O   0  0  0  0  0  0  0  0  0  0  0  0
   32.8000   59.9320    6.2210 C   0  0  0  0  0  0  0  0  0  0  0  0
   31.9630   60.9340    5.6780 O   0  0  0  0  0  0  0  0  0  0  0  0
   31.2850   65.6920    4.2740 C   0  0  0  0  0  0  0  0  0  0  0  0
   30.8820   68.0890    4.6100 N   0  0  0  0  0  0  0  0  0  0  0  0
   30.2050   65.5810    3.6980 O   0  0  0  0  0  0  0  0  0  0  0  0
   31.9030   67.0430    4.5370 C   0  0  2  0  0  0  0  0  0  0  0  0
   25.2920   72.1220    6.4980 C   0  0  0  0  0  0  0  0  0  0  0  0
   31.8780   69.1720    6.2750 O   0  0  0  0  0  0  0  0  0  0  0  0
   27.3830   71.6590    3.9700 O   0  0  0  0  0  0  0  0  0  0  0  0
   28.7650   69.3120    3.7410 O   0  0  0  0  0  0  0  0  0  0  0  0
   35.7070   68.3620    0.5700 O   0  0  0  0  0  0  0  0  0  0  0  0
   31.2190   62.7020    7.1610 O   0  0  0  0  0  0  0  0  0  0  0  0
   33.5000   62.7500    6.1820 O   0  0  0  0  0  0  0  0  0  0  0  0
   35.1480   68.0580    2.8760 C   0  0  0  0  0  0  0  0  0  0  0  0
   33.4890   67.7070    1.1620 C   0  0  0  0  0  0  0  0  0  0  0  0
   34.2210   67.7330    3.8630 C   0  0  0  0  0  0  0  0  0  0  0  0
   32.5610   67.3820    2.1480 C   0  0  0  0  0  0  0  0  0  0  0  0
   26.7170   72.5410    6.2800 C   0  0  0  0  0  0  0  0  0  0  0  0
   31.5750   63.2490    4.5680 C   0  0  0  0  0  0  0  0  0  0  0  0
   28.6220   71.4420    7.0800 C   0  0  0  0  0  0  0  0  0  0  0  0
   29.8280   70.7750    6.7390 C   0  0  0  0  0  0  0  0  0  0  0  0
   31.9740   64.6460    4.7090 N   0  0  0  0  0  0  0  0  0  0  0  0
   30.9430   69.1030    5.4870 C   0  0  0  0  0  0  0  0  0  0  0  0
   27.9020   71.0960    4.9290 C   0  0  0  0  0  0  0  0  0  0  0  0
   28.9220   70.0670    4.6850 C   0  0  0  0  0  0  0  0  0  0  0  0
   34.7890   68.0420    1.5300 C   0  0  0  0  0  0  0  0  0  0  0  0
   32.9150   67.3900    3.5000 C   0  0  0  0  0  0  0  0  0  0  0  0
   32.0260   62.4760    5.8850 B   0  0  0  0  0  0  0  0  0  0  0  0
   27.5210   71.3750    6.1850 N   0  0  0  0  0  0  0  0  0  0  0  0
   29.9720   70.0440    5.5260 N   0  0  0  0  0  0  0  0  0  0  0  0
  2  3  1  0  0  0  0
  2  1  1  1  0  0  0
  4  3  2  0  0  0  0
  5  2  1  0  0  0  0
  6 32  1  0  0  0  0
  6  5  1  0  0  0  0
  7  9  2  0  0  0  0
  7 26  1  0  0  0  0
  8 10  1  0  0  0  0
  8 27  1  0  0  0  0
 10  7  1  6  0  0  0
 10 31  1  0  0  0  0
 11 22  1  0  0  0  0
 12 27  2  0  0  0  0
 13 28  2  0  0  0  0
 14 29  2  0  0  0  0
 15 30  1  0  0  0  0
 16 32  1  0  0  0  0
 17 32  1  0  0  0  0
 18 20  2  0  0  0  0
 18 30  1  0  0  0  0
 19 21  1  0  0  0  0
 19 30  2  0  0  0  0
 20 31  1  0  0  0  0
 21 31  2  0  0  0  0
 22 33  1  0  0  0  0
 23 26  1  0  0  0  0
 23 32  1  0  0  0  0
 24 25  2  0  0  0  0
 24 33  1  0  0  0  0
 25 34  1  0  0  0  0
 27 34  1  0  0  0  0
 28 29  1  0  0  0  0
 28 33  1  0  0  0  0
 29 34  1  0  0  0  0
M  END
>  <HEADER>
    HYDROLASE/HYDROLASE INHIBITOR           14-APR-10   3MKF              

>  <TITLE>
    SHV-1 BETA-LACTAMASE COMPLEX WITH GB0301                              

>  <COMPND>
    MOL_ID: 1;                                                            
   2 MOLECULE: BETA-LACTAMASE SHV-1;                                      
   3 CHAIN: A;                                                            
   4 SYNONYM: PIT-2;                                                      
   5 EC: 3.5.2.6;                                                         
   6 ENGINEERED: YES                                                      

>  <SOURCE>
    MOL_ID: 1;                                                            
   2 ORGANISM_SCIENTIFIC: KLEBSIELLA PNEUMONIAE;                          
   3 ORGANISM_TAXID: 573;                                                 
   4 STRAIN: BACTERIA;                                                    
   5 GENE: BLA, SHV1;                                                     
   6 EXPRESSION_SYSTEM: ESCHERICHIA COLI;                                 
   7 EXPRESSION_SYSTEM_TAXID: 562;                                        
   8 EXPRESSION_SYSTEM_STRAIN: DH10B;                                     
   9 EXPRESSION_SYSTEM_VECTOR_TYPE: PLASMID;                              
  10 EXPRESSION_SYSTEM_PLASMID: PBC SK(-)                                 

>  <KEYWDS>
    BETA-LACTAMASE, BORONIC ACID TRANSITION STATE INHIBITOR, DRUG DESIGN, 
   2 HYDROLASE, HYDROLASE-HYDROLASE INHIBITOR COMPLEX                     

>  <EXPDTA>
    X-RAY DIFFRACTION                                                     

>  <AUTHOR>
    F.VAN DEN AKKER,W.KE                                                  

>  <REVDAT>
   3   08-NOV-17 3MKF    1       REMARK                                   
   2   05-JAN-11 3MKF    1       JRNL                                     
   1   24-NOV-10 3MKF    0                                                

>  <JRNL>
      AUTH   W.KE,J.M.SAMPSON,C.ORI,F.PRATI,S.M.DRAWZ,C.R.BETHEL,         
      AUTH 2 R.A.BONOMO,F.VAN DEN AKKER                                   
      TITL   NOVEL INSIGHTS INTO THE MODE OF INHIBITION OF CLASS A SHV-1  
      TITL 2 {BETA}-LACTAMASES REVEALED BY BORONIC ACID TRANSITION STATE  
      TITL 3 INHIBITORS.                                                  
      REF    ANTIMICROB.AGENTS CHEMOTHER.  V.  55   174 2011              
      REFN                   ISSN 0066-4804                               
      PMID   21041505                                                     
      DOI    10.1128/AAC.00930-10                                         

>  <REMARK>
   2                                                                      
   2 RESOLUTION.    1.33 ANGSTROMS.                                       
   3                                                                      
   3 REFINEMENT.                                                          
   3   PROGRAM     : REFMAC 5.2.0019                                      
   3   AUTHORS     : MURSHUDOV,VAGIN,DODSON                               
   3                                                                      
   3    REFINEMENT TARGET : MAXIMUM LIKELIHOOD                            
   3                                                                      
   3  DATA USED IN REFINEMENT.                                            
   3   RESOLUTION RANGE HIGH (ANGSTROMS) : 1.33                           
   3   RESOLUTION RANGE LOW  (ANGSTROMS) : 24.03                          
   3   DATA CUTOFF            (SIGMA(F)) : NULL                           
   3   COMPLETENESS FOR RANGE        (%) : 93.6                           
   3   NUMBER OF REFLECTIONS             : 47303                          
   3                                                                      
   3  FIT TO DATA USED IN REFINEMENT.                                     
   3   CROSS-VALIDATION METHOD          : THROUGHOUT                      
   3   FREE R VALUE TEST SET SELECTION  : RANDOM                          
   3   R VALUE     (WORKING + TEST SET) : 0.179                           
   3   R VALUE            (WORKING SET) : 0.179                           
   3   FREE R VALUE                     : 0.190                           
   3   FREE R VALUE TEST SET SIZE   (%) : 5.100                           
   3   FREE R VALUE TEST SET COUNT      : 2533                            
   3                                                                      
   3  FIT IN THE HIGHEST RESOLUTION BIN.                                  
   3   TOTAL NUMBER OF BINS USED           : 20                           
   3   BIN RESOLUTION RANGE HIGH       (A) : 1.33                         
   3   BIN RESOLUTION RANGE LOW        (A) : 1.36                         
   3   REFLECTION IN BIN     (WORKING SET) : 2600                         
   3   BIN COMPLETENESS (WORKING+TEST) (%) : 71.39                        
   3   BIN R VALUE           (WORKING SET) : 0.2950                       
   3   BIN FREE R VALUE SET COUNT          : 142                          
   3   BIN FREE R VALUE                    : 0.3650                       
   3                                                                      
   3  NUMBER OF NON-HYDROGEN ATOMS USED IN REFINEMENT.                    
   3   PROTEIN ATOMS            : 2024                                    
   3   NUCLEIC ACID ATOMS       : 0                                       
   3   HETEROGEN ATOMS          : 70                                      
   3   SOLVENT ATOMS            : 183                                     
   3                                                                      
   3  B VALUES.                                                           
   3   FROM WILSON PLOT           (A**2) : 12.19                          
   3   MEAN B VALUE      (OVERALL, A**2) : 12.14                          
   3   OVERALL ANISOTROPIC B VALUE.                                       
   3    B11 (A**2) : 0.00000                                              
   3    B22 (A**2) : 0.00000                                              
   3    B33 (A**2) : 0.00000                                              
   3    B12 (A**2) : 0.00000                                              
   3    B13 (A**2) : 0.00000                                              
   3    B23 (A**2) : 0.00000                                              
   3                                                                      
   3  ESTIMATED OVERALL COORDINATE ERROR.                                 
   3   ESU BASED ON R VALUE                            (A): 0.061         
   3   ESU BASED ON FREE R VALUE                       (A): 0.058         
   3   ESU BASED ON MAXIMUM LIKELIHOOD                 (A): 0.033         
   3   ESU FOR B VALUES BASED ON MAXIMUM LIKELIHOOD (A**2): 0.770         
   3                                                                      
   3 CORRELATION COEFFICIENTS.                                            
   3   CORRELATION COEFFICIENT FO-FC      : 0.962                         
   3   CORRELATION COEFFICIENT FO-FC FREE : 0.957                         
   3                                                                      
   3  RMS DEVIATIONS FROM IDEAL VALUES        COUNT    RMS    WEIGHT      
   3   BOND LENGTHS REFINED ATOMS        (A):  2202 ; 0.007 ; 0.022       
   3   BOND LENGTHS OTHERS               (A):  NULL ;  NULL ;  NULL       
   3   BOND ANGLES REFINED ATOMS   (DEGREES):  2999 ; 1.168 ; 2.003       
   3   BOND ANGLES OTHERS          (DEGREES):  NULL ;  NULL ;  NULL       
   3   TORSION ANGLES, PERIOD 1    (DEGREES):   285 ; 5.713 ; 5.000       
   3   TORSION ANGLES, PERIOD 2    (DEGREES):    98 ;37.066 ;23.571       
   3   TORSION ANGLES, PERIOD 3    (DEGREES):   378 ;11.980 ;15.000       
   3   TORSION ANGLES, PERIOD 4    (DEGREES):    24 ;17.321 ;15.000       
   3   CHIRAL-CENTER RESTRAINTS       (A**3):   347 ; 0.075 ; 0.200       
   3   GENERAL PLANES REFINED ATOMS      (A):  1655 ; 0.004 ; 0.020       
   3   GENERAL PLANES OTHERS             (A):  NULL ;  NULL ;  NULL       
   3   NON-BONDED CONTACTS REFINED ATOMS (A):  1069 ; 0.197 ; 0.200       
   3   NON-BONDED CONTACTS OTHERS        (A):  NULL ;  NULL ;  NULL       
   3   NON-BONDED TORSION REFINED ATOMS  (A):  1556 ; 0.303 ; 0.200       
   3   NON-BONDED TORSION OTHERS         (A):  NULL ;  NULL ;  NULL       
   3   H-BOND (X...Y) REFINED ATOMS      (A):   159 ; 0.112 ; 0.200       
   3   H-BOND (X...Y) OTHERS             (A):  NULL ;  NULL ;  NULL       
   3   POTENTIAL METAL-ION REFINED ATOMS (A):  NULL ;  NULL ;  NULL       
   3   POTENTIAL METAL-ION OTHERS        (A):  NULL ;  NULL ;  NULL       
   3   SYMMETRY VDW REFINED ATOMS        (A):    59 ; 0.192 ; 0.200       
   3   SYMMETRY VDW OTHERS               (A):  NULL ;  NULL ;  NULL       
   3   SYMMETRY H-BOND REFINED ATOMS     (A):    27 ; 0.095 ; 0.200       
   3   SYMMETRY H-BOND OTHERS            (A):  NULL ;  NULL ;  NULL       
   3   SYMMETRY METAL-ION REFINED ATOMS  (A):  NULL ;  NULL ;  NULL       
   3   SYMMETRY METAL-ION OTHERS         (A):  NULL ;  NULL ;  NULL       
   3                                                                      
   3  ISOTROPIC THERMAL FACTOR RESTRAINTS.     COUNT   RMS    WEIGHT      
   3   MAIN-CHAIN BOND REFINED ATOMS  (A**2):  1399 ; 0.570 ; 1.500       
   3   MAIN-CHAIN BOND OTHER ATOMS    (A**2):  NULL ;  NULL ;  NULL       
   3   MAIN-CHAIN ANGLE REFINED ATOMS (A**2):  2183 ; 0.914 ; 2.000       
   3   MAIN-CHAIN ANGLE OTHER ATOMS   (A**2):  NULL ;  NULL ;  NULL       
   3   SIDE-CHAIN BOND REFINED ATOMS  (A**2):   895 ; 1.451 ; 3.000       
   3   SIDE-CHAIN BOND OTHER ATOMS    (A**2):  NULL ;  NULL ;  NULL       
   3   SIDE-CHAIN ANGLE REFINED ATOMS (A**2):   806 ; 2.310 ; 4.500       
   3   SIDE-CHAIN ANGLE OTHER ATOMS   (A**2):  NULL ;  NULL ;  NULL       
   3   LONG RANGE B REFINED ATOMS     (A**2):  NULL ;  NULL ;  NULL       
   3   LONG RANGE B OTHER ATOMS       (A**2):  NULL ;  NULL ;  NULL       
   3                                                                      
   3 ANISOTROPIC THERMAL FACTOR RESTRAINTS.    COUNT   RMS   WEIGHT       
   3   RIGID-BOND RESTRAINTS          (A**2):  NULL ;  NULL ;  NULL       
   3   SPHERICITY; FREE ATOMS         (A**2):  NULL ;  NULL ;  NULL       
   3   SPHERICITY; BONDED ATOMS       (A**2):  NULL ;  NULL ;  NULL       
   3                                                                      
   3  NCS RESTRAINTS STATISTICS                                           
   3   NUMBER OF DIFFERENT NCS GROUPS : NULL                              
   3                                                                      
   3  TLS DETAILS                                                         
   3   NUMBER OF TLS GROUPS  : NULL                                       
   3                                                                      
   3  BULK SOLVENT MODELLING.                                             
   3   METHOD USED : MASK                                                 
   3   PARAMETERS FOR MASK CALCULATION                                    
   3   VDW PROBE RADIUS   : 1.40                                          
   3   ION PROBE RADIUS   : 0.80                                          
   3   SHRINKAGE RADIUS   : 0.80                                          
   3                                                                      
   3  OTHER REFINEMENT REMARKS: HYDROGENS HAVE BEEN ADDED IN THE RIDING   
   3  POSITIONS                                                           
   4                                                                      
   4 3MKF COMPLIES WITH FORMAT V. 3.30, 13-JUL-11                         
 100                                                                      
 100 THIS ENTRY HAS BEEN PROCESSED BY RCSB ON 20-APR-10.                  
 100 THE DEPOSITION ID IS D_1000058655.                                   
 200                                                                      
 200 EXPERIMENTAL DETAILS                                                 
 200  EXPERIMENT TYPE                : X-RAY DIFFRACTION                  
 200  DATE OF DATA COLLECTION        : 21-JUL-07                          
 200  TEMPERATURE           (KELVIN) : 100                                
 200  PH                             : 7.0                                
 200  NUMBER OF CRYSTALS USED        : 1                                  
 200                                                                      
 200  SYNCHROTRON              (Y/N) : Y                                  
 200  RADIATION SOURCE               : NSLS                               
 200  BEAMLINE                       : X29A                               
 200  X-RAY GENERATOR MODEL          : NULL                               
 200  MONOCHROMATIC OR LAUE    (M/L) : M                                  
 200  WAVELENGTH OR RANGE        (A) : 1.08100                            
 200  MONOCHROMATOR                  : ROSENBAUM-ROCK DOUBLE CRYSTAL      
 200                                   SAGITTAL FOCUSING MONOCHROMATOR    
 200  OPTICS                         : MIRRORS                            
 200                                                                      
 200  DETECTOR TYPE                  : CCD                                
 200  DETECTOR MANUFACTURER          : ADSC QUANTUM 315                   
 200  INTENSITY-INTEGRATION SOFTWARE : HKL-2000                           
 200  DATA SCALING SOFTWARE          : HKL-2000                           
 200                                                                      
 200  NUMBER OF UNIQUE REFLECTIONS   : 49901                              
 200  RESOLUTION RANGE HIGH      (A) : 1.330                              
 200  RESOLUTION RANGE LOW       (A) : 50.000                             
 200  REJECTION CRITERIA  (SIGMA(I)) : 1.000                              
 200                                                                      
 200 OVERALL.                                                             
 200  COMPLETENESS FOR RANGE     (%) : 23.0                               
 200  DATA REDUNDANCY                : 4.400                              
 200  R MERGE                    (I) : 0.03400                            
 200  R SYM                      (I) : NULL                               
 200  <I/SIGMA(I)> FOR THE DATA SET  : NULL                               
 200                                                                      
 200 IN THE HIGHEST RESOLUTION SHELL.                                     
 200  HIGHEST RESOLUTION SHELL, RANGE HIGH (A) : 1.33                     
 200  HIGHEST RESOLUTION SHELL, RANGE LOW  (A) : 1.38                     
 200  COMPLETENESS FOR SHELL     (%) : 73.5                               
 200  DATA REDUNDANCY IN SHELL       : 2.90                               
 200  R MERGE FOR SHELL          (I) : 0.22900                            
 200  R SYM FOR SHELL            (I) : NULL                               
 200  <I/SIGMA(I)> FOR SHELL         : 3.890                              
 200                                                                      
 200 DIFFRACTION PROTOCOL: SINGLE WAVELENGTH                              
 200 METHOD USED TO DETERMINE THE STRUCTURE: MOLECULAR REPLACEMENT        
 200 SOFTWARE USED: MOLECULAR REPLACEMENT                                 
 200 STARTING MODEL: PDB ENTRY 1VM1                                       
 200                                                                      
 200 REMARK: NULL                                                         
 280                                                                      
 280 CRYSTAL                                                              
 280 SOLVENT CONTENT, VS   (%): 37.67                                     
 280 MATTHEWS COEFFICIENT, VM (ANGSTROMS**3/DA): 1.97                     
 280                                                                      
 280 CRYSTALLIZATION CONDITIONS: 20-30% PEG 6000, 0.1M HEPES, 0.56MM      
 280  CYMAL-6, PH 7.0, VAPOR DIFFUSION, SITTING DROP, TEMPERATURE         
 280  293.0K                                                              
 290                                                                      
 290 CRYSTALLOGRAPHIC SYMMETRY                                            
 290 SYMMETRY OPERATORS FOR SPACE GROUP: P 21 21 21                       
 290                                                                      
 290      SYMOP   SYMMETRY                                                
 290     NNNMMM   OPERATOR                                                
 290       1555   X,Y,Z                                                   
 290       2555   -X+1/2,-Y,Z+1/2                                         
 290       3555   -X,Y+1/2,-Z+1/2                                         
 290       4555   X+1/2,-Y+1/2,-Z                                         
 290                                                                      
 290     WHERE NNN -> OPERATOR NUMBER                                     
 290           MMM -> TRANSLATION VECTOR                                  
 290                                                                      
 290 CRYSTALLOGRAPHIC SYMMETRY TRANSFORMATIONS                            
 290 THE FOLLOWING TRANSFORMATIONS OPERATE ON THE ATOM/HETATM             
 290 RECORDS IN THIS ENTRY TO PRODUCE CRYSTALLOGRAPHICALLY                
 290 RELATED MOLECULES.                                                   
 290   SMTRY1   1  1.000000  0.000000  0.000000        0.00000            
 290   SMTRY2   1  0.000000  1.000000  0.000000        0.00000            
 290   SMTRY3   1  0.000000  0.000000  1.000000        0.00000            
 290   SMTRY1   2 -1.000000  0.000000  0.000000       24.60750            
 290   SMTRY2   2  0.000000 -1.000000  0.000000        0.00000            
 290   SMTRY3   2  0.000000  0.000000  1.000000       41.29500            
 290   SMTRY1   3 -1.000000  0.000000  0.000000        0.00000            
 290   SMTRY2   3  0.000000  1.000000  0.000000       28.06950            
 290   SMTRY3   3  0.000000  0.000000 -1.000000       41.29500            
 290   SMTRY1   4  1.000000  0.000000  0.000000       24.60750            
 290   SMTRY2   4  0.000000 -1.000000  0.000000       28.06950            
 290   SMTRY3   4  0.000000  0.000000 -1.000000        0.00000            
 290                                                                      
 290 REMARK: NULL                                                         
 300                                                                      
 300 BIOMOLECULE: 1                                                       
 300 SEE REMARK 350 FOR THE AUTHOR PROVIDED AND/OR PROGRAM                
 300 GENERATED ASSEMBLY INFORMATION FOR THE STRUCTURE IN                  
 300 THIS ENTRY. THE REMARK MAY ALSO PROVIDE INFORMATION ON               
 300 BURIED SURFACE AREA.                                                 
 350                                                                      
 350 COORDINATES FOR A COMPLETE MULTIMER REPRESENTING THE KNOWN           
 350 BIOLOGICALLY SIGNIFICANT OLIGOMERIZATION STATE OF THE                
 350 MOLECULE CAN BE GENERATED BY APPLYING BIOMT TRANSFORMATIONS          
 350 GIVEN BELOW.  BOTH NON-CRYSTALLOGRAPHIC AND                          
 350 CRYSTALLOGRAPHIC OPERATIONS ARE GIVEN.                               
 350                                                                      
 350 BIOMOLECULE: 1                                                       
 350 AUTHOR DETERMINED BIOLOGICAL UNIT: MONOMERIC                         
 350 SOFTWARE DETERMINED QUATERNARY STRUCTURE: MONOMERIC                  
 350 SOFTWARE USED: PISA                                                  
 350 APPLY THE FOLLOWING TO CHAINS: A                                     
 350   BIOMT1   1  1.000000  0.000000  0.000000        0.00000            
 350   BIOMT2   1  0.000000  1.000000  0.000000        0.00000            
 350   BIOMT3   1  0.000000  0.000000  1.000000        0.00000            
 500                                                                      
 500 GEOMETRY AND STEREOCHEMISTRY                                         
 500 SUBTOPIC: TORSION ANGLES                                             
 500                                                                      
 500 TORSION ANGLES OUTSIDE THE EXPECTED RAMACHANDRAN REGIONS:            
 500 (M=MODEL NUMBER; RES=RESIDUE NAME; C=CHAIN IDENTIFIER;               
 500 SSEQ=SEQUENCE NUMBER; I=INSERTION CODE).                             
 500                                                                      
 500 STANDARD TABLE:                                                      
 500 FORMAT:(10X,I3,1X,A3,1X,A1,I4,A1,4X,F7.2,3X,F7.2)                    
 500                                                                      
 500 EXPECTED VALUES: GJ KLEYWEGT AND TA JONES (1996). PHI/PSI-           
 500 CHOLOGY: RAMACHANDRAN REVISITED. STRUCTURE 4, 1395 - 1400            
 500                                                                      
 500  M RES CSSEQI        PSI       PHI                                   
 500    MET A  69     -142.97     50.76                                   
 500                                                                      
 500 REMARK: NULL                                                         
 610                                                                      
 610 MISSING HETEROATOM                                                   
 610 THE FOLLOWING RESIDUES HAVE MISSING ATOMS (M=MODEL NUMBER;           
 610 RES=RESIDUE NAME; C=CHAIN IDENTIFIER; SSEQ=SEQUENCE NUMBER;          
 610 I=INSERTION CODE):                                                   
 610   M RES C SSEQI                                                      
 610     MA4 A  601                                                       
 800                                                                      
 800 SITE                                                                 
 800 SITE_IDENTIFIER: AC1                                                 
 800 EVIDENCE_CODE: SOFTWARE                                              
 800 SITE_DESCRIPTION: BINDING SITE FOR RESIDUE CZ7 A 1                   
 800                                                                      
 800 SITE_IDENTIFIER: AC2                                                 
 800 EVIDENCE_CODE: SOFTWARE                                              
 800 SITE_DESCRIPTION: BINDING SITE FOR RESIDUE MA4 A 600                 
 800                                                                      
 800 SITE_IDENTIFIER: AC3                                                 
 800 EVIDENCE_CODE: SOFTWARE                                              
 800 SITE_DESCRIPTION: BINDING SITE FOR RESIDUE MA4 A 601                 
 900                                                                      
 900 RELATED ENTRIES                                                      
 900 RELATED ID: 3MKE   RELATED DB: PDB                                   
 900 THE SAME PROTEIN COMPLEXED WITH CEFTAZIDIME BATSI                    

>  <DBREF>
 3MKF A   26   292  UNP    P0AD64   BLA1_KLEPN      22    286             

>  <SEQRES>
   1 A  265  SER PRO GLN PRO LEU GLU GLN ILE LYS LEU SER GLU SER          
   2 A  265  GLN LEU SER GLY ARG VAL GLY MET ILE GLU MET ASP LEU          
   3 A  265  ALA SER GLY ARG THR LEU THR ALA TRP ARG ALA ASP GLU          
   4 A  265  ARG PHE PRO MET MET SER THR PHE LYS VAL VAL LEU CYS          
   5 A  265  GLY ALA VAL LEU ALA ARG VAL ASP ALA GLY ASP GLU GLN          
   6 A  265  LEU GLU ARG LYS ILE HIS TYR ARG GLN GLN ASP LEU VAL          
   7 A  265  ASP TYR SER PRO VAL SER GLU LYS HIS LEU ALA ASP GLY          
   8 A  265  MET THR VAL GLY GLU LEU CYS ALA ALA ALA ILE THR MET          
   9 A  265  SER ASP ASN SER ALA ALA ASN LEU LEU LEU ALA THR VAL          
  10 A  265  GLY GLY PRO ALA GLY LEU THR ALA PHE LEU ARG GLN ILE          
  11 A  265  GLY ASP ASN VAL THR ARG LEU ASP ARG TRP GLU THR GLU          
  12 A  265  LEU ASN GLU ALA LEU PRO GLY ASP ALA ARG ASP THR THR          
  13 A  265  THR PRO ALA SER MET ALA ALA THR LEU ARG LYS LEU LEU          
  14 A  265  THR SER GLN ARG LEU SER ALA ARG SER GLN ARG GLN LEU          
  15 A  265  LEU GLN TRP MET VAL ASP ASP ARG VAL ALA GLY PRO LEU          
  16 A  265  ILE ARG SER VAL LEU PRO ALA GLY TRP PHE ILE ALA ASP          
  17 A  265  LYS THR GLY ALA GLY GLU ARG GLY ALA ARG GLY ILE VAL          
  18 A  265  ALA LEU LEU GLY PRO ASN ASN LYS ALA GLU ARG ILE VAL          
  19 A  265  VAL ILE TYR LEU ARG ASP THR PRO ALA SER MET ALA GLU          
  20 A  265  ARG ASN GLN GLN ILE ALA GLY ILE GLY ALA ALA LEU ILE          
  21 A  265  GLU HIS TRP GLN ARG                                          

>  <HET>
 CZ7  A   1      28                                                       
 MA4  A 600      35                                                       
 MA4  A 601       7                                                       

>  <HETNAM>
     CZ7 ({[(2R)-2-{[(4-ETHYL-2,3-DIOXO-3,4-DIHYDROPYRAZIN-               
   2 CZ7  1(2H)-YL)CARBONYL]AMINO}-2-(4-HYDROXYPHENYL)                    
   3 CZ7  ACETYL]AMINO}METHYL)BORONIC ACID                                
     MA4 CYCLOHEXYL-HEXYL-BETA-D-MALTOSIDE                                

>  <FORMUL>
   2  CZ7    C16 H19 B N4 O7                                              
   3  MA4    2(C24 H44 O11)                                               
   5  HOH   *183(H2 O)                                                    

>  <HELIX>
   1   1 GLN A   28  SER A   41  1                                  14    
   2   2 THR A   71  ALA A   86  1                                  16    
   3   3 ARG A   98  LEU A  102  5                                   5    
   4   4 VAL A  108  HIS A  112  5                                   5    
   5   5 VAL A  119  MET A  129  1                                  11    
   6   6 ASP A  131  VAL A  142  1                                  12    
   7   7 GLY A  143  ILE A  155  1                                  13    
   8   8 THR A  167  GLU A  171  5                                   5    
   9   9 THR A  182  SER A  196  1                                  15    
  10  10 SER A  200  ASP A  213  1                                  14    
  11  11 ALA A  217  LEU A  225  1                                   9    
  12  12 SER A  271  HIS A  289  1                                  19    

>  <SHEET>
   1   A 5 THR A  56  TRP A  60  0                                        
   2   A 5 ARG A  43  ASP A  50 -1  N  GLU A  48   O  LEU A  57           
   3   A 5 ARG A 259  ARG A 266 -1  O  ILE A 260   N  MET A  49           
   4   A 5 ARG A 244  GLY A 251 -1  N  ARG A 244   O  LEU A 265           
   5   A 5 PHE A 230  ALA A 237 -1  N  PHE A 230   O  GLY A 251           
   1   B 2 PHE A  66  PRO A  67  0                                        
   2   B 2 THR A 180  THR A 181 -1  O  THR A 181   N  PHE A  66           
   1   C 2 LYS A  94  ILE A  95  0                                        
   2   C 2 MET A 117  THR A 118 -1  O  MET A 117   N  ILE A  95           

>  <SSBOND>
   1 CYS A   77    CYS A  123                          1555   1555  2.05  

>  <LINK>
       OG  SER A  70                 BAY CZ7 A   1     1555   1555  1.56  

>  <CISPEP>
   1 GLU A  166    THR A  167          0         4.12                     

>  <SITE>
   1 AC1 12 MET A  69  SER A  70  TYR A 105  ASN A 132                    
   2 AC1 12 GLU A 166  THR A 167  ASN A 170  GLY A 236                    
   3 AC1 12 ALA A 237  GLU A 240  HOH A 354  HOH A 372                    
   1 AC2 15 ARG A  93  LYS A  94  ILE A  95  HIS A  96                    
   2 AC2 15 VAL A 224  PRO A 226  VAL A 261  ILE A 263                    
   3 AC2 15 ALA A 280  ALA A 284  GLU A 288  HOH A 327                    
   4 AC2 15 HOH A 357  HOH A 374  HOH A 435                               
   1 AC3  2 ARG A 244  ASN A 276                                          

>  <ORIGX1>
      1.000000  0.000000  0.000000        0.00000                         

>  <ORIGX2>
      0.000000  1.000000  0.000000        0.00000                         

>  <ORIGX3>
      0.000000  0.000000  1.000000        0.00000                         

>  <SCALE1>
      0.020319  0.000000  0.000000        0.00000                         

>  <SCALE2>
      0.000000  0.017813  0.000000        0.00000                         

>  <SCALE3>
      0.000000  0.000000  0.012108        0.00000                         

>  <MASTER>
      279    0    3   12    9    0    8    6 2277    1   73   21          

$$$$
