start_structures/Ligand_Substrate/Ligand_Complex_Stripped/CZ8_3MXR.pdb
 OpenBabel08222315203D

 36 37  0  0  1  0  0  0  0  0999 V2000
   33.2410   60.5010    8.4610 N   0  0  0  0  0  0  0  0  0  0  0  0
   32.6960   59.3700    7.7150 C   0  0  2  0  0  0  0  0  0  0  0  0
   33.2560   58.0540    8.2040 C   0  0  0  0  0  0  0  0  0  0  0  0
   32.7980   57.0120    7.7760 O   0  0  0  0  0  0  0  0  0  0  0  0
   32.9240   59.5290    6.2130 C   0  0  0  0  0  0  0  0  0  0  0  0
   32.0440   60.5130    5.6920 O   0  0  0  0  0  0  0  0  0  0  0  0
   31.3490   65.1880    4.2150 C   0  0  0  0  0  0  0  0  0  0  0  0
   30.8650   67.4840    4.6650 N   0  0  0  0  0  0  0  0  0  0  0  0
   30.2930   65.0440    3.5910 O   0  0  0  0  0  0  0  0  0  0  0  0
   31.9610   66.5550    4.4240 C   0  0  2  0  0  0  0  0  0  0  0  0
   32.6990   66.9890    3.1650 C   0  0  0  0  0  0  0  0  0  0  0  0
   25.3360   71.7750    6.7960 C   0  0  0  0  0  0  0  0  0  0  0  0
   32.1170   68.6760    6.1150 O   0  0  0  0  0  0  0  0  0  0  0  0
   27.3220   71.0590    4.0870 O   0  0  0  0  0  0  0  0  0  0  0  0
   28.8740   68.9130    3.7460 O   0  0  0  0  0  0  0  0  0  0  0  0
   36.8960   68.2960   -1.4000 O   0  0  0  0  0  0  0  0  0  0  0  0
   33.5680   62.3080    6.2290 O   0  0  0  0  0  0  0  0  0  0  0  0
   31.2640   62.2360    7.1530 O   0  0  0  0  0  0  0  0  0  0  0  0
   35.0500   67.0650   -0.5300 C   0  0  0  0  0  0  0  0  0  0  0  0
   36.6580   68.0770    0.9640 C   0  0  0  0  0  0  0  0  0  0  0  0
   34.3470   66.5680    0.5640 C   0  0  0  0  0  0  0  0  0  0  0  0
   35.9530   67.5820    2.0610 C   0  0  0  0  0  0  0  0  0  0  0  0
   26.2720   70.5900    6.6750 C   0  0  0  0  0  0  0  0  0  0  0  0
   34.0480   66.2930    3.0550 C   0  0  0  0  0  0  0  0  0  0  0  0
   31.5540   62.7460    4.6330 C   0  0  0  0  0  0  0  0  0  0  0  0
   28.5460   70.6520    7.3530 C   0  0  0  0  0  0  0  0  0  0  0  0
   29.8960   70.0270    7.0240 C   0  0  0  0  0  0  0  0  0  0  0  0
   31.9790   64.1370    4.7210 N   0  0  0  0  0  0  0  0  0  0  0  0
   31.0490   68.5030    5.5240 C   0  0  0  0  0  0  0  0  0  0  0  0
   27.9200   70.5830    5.0470 C   0  0  0  0  0  0  0  0  0  0  0  0
   28.9430   69.5600    4.7820 C   0  0  0  0  0  0  0  0  0  0  0  0
   32.1160   61.9530    5.9080 B   0  0  0  0  0  0  0  0  0  0  0  0
   36.2050   67.8160   -0.3280 C   0  0  0  0  0  0  0  0  0  0  0  0
   34.8000   66.8300    1.8580 C   0  0  0  0  0  0  0  0  0  0  0  0
   27.6130   71.0190    6.2860 N   0  0  0  0  0  0  0  0  0  0  0  0
   30.0110   69.3330    5.7520 N   0  0  0  0  0  0  0  0  0  0  0  0
  2  3  1  0  0  0  0
  2  1  1  1  0  0  0
  4  3  2  0  0  0  0
  5  2  1  0  0  0  0
  6 32  1  0  0  0  0
  6  5  1  0  0  0  0
  7  9  2  0  0  0  0
  7 10  1  0  0  0  0
  7 28  1  0  0  0  0
  8 10  1  0  0  0  0
  8 29  1  0  0  0  0
 10 11  1  6  0  0  0
 11 24  1  0  0  0  0
 12 23  1  0  0  0  0
 13 29  2  0  0  0  0
 14 30  2  0  0  0  0
 15 31  2  0  0  0  0
 16 33  1  0  0  0  0
 17 32  1  0  0  0  0
 18 32  1  0  0  0  0
 19 21  2  0  0  0  0
 19 33  1  0  0  0  0
 20 22  1  0  0  0  0
 20 33  2  0  0  0  0
 21 34  1  0  0  0  0
 22 34  2  0  0  0  0
 23 35  1  0  0  0  0
 24 34  1  0  0  0  0
 25 28  1  0  0  0  0
 25 32  1  0  0  0  0
 26 27  1  0  0  0  0
 26 35  1  0  0  0  0
 27 36  1  0  0  0  0
 29 36  1  0  0  0  0
 30 31  1  0  0  0  0
 30 35  1  0  0  0  0
 31 36  1  0  0  0  0
M  END
>  <HEADER>
    HYDROLASE/HYDROLASE INHIBITOR           07-MAY-10   3MXR              

>  <TITLE>
    SHV-1 BETA-LACTAMASE COMPLEX WITH COMPOUND 1                          

>  <COMPND>
    MOL_ID: 1;                                                            
   2 MOLECULE: BETA-LACTAMASE SHV-1;                                      
   3 CHAIN: A;                                                            
   4 SYNONYM: PIT-2;                                                      
   5 EC: 3.5.2.6;                                                         
   6 ENGINEERED: YES                                                      

>  <SOURCE>
    MOL_ID: 1;                                                            
   2 ORGANISM_SCIENTIFIC: KLEBSIELLA PNEUMONIAE;                          
   3 ORGANISM_TAXID: 573;                                                 
   4 GENE: BLA, SHV1;                                                     
   5 EXPRESSION_SYSTEM: ESCHERICHIA COLI;                                 
   6 EXPRESSION_SYSTEM_TAXID: 562;                                        
   7 EXPRESSION_SYSTEM_STRAIN: DH10B;                                     
   8 EXPRESSION_SYSTEM_VECTOR_TYPE: PLASMID;                              
   9 EXPRESSION_SYSTEM_PLASMID: PBC SK(-)                                 

>  <KEYWDS>
    BETA-LACTAMASE, BORONIC ACID TRANSITION STATE INHIBITOR, DRUG DESIGN, 
   2 HYDROLASE, HYDROLASE-HYDROLASE INHIBITOR COMPLEX                     

>  <EXPDTA>
    X-RAY DIFFRACTION                                                     

>  <AUTHOR>
    W.KE,F.VAN DEN AKKER                                                  

>  <REVDAT>
   3   08-NOV-17 3MXR    1       REMARK                                   
   2   05-JAN-11 3MXR    1       JRNL                                     
   1   24-NOV-10 3MXR    0                                                

>  <JRNL>
      AUTH   W.KE,J.M.SAMPSON,C.ORI,F.PRATI,S.M.DRAWZ,C.R.BETHEL,         
      AUTH 2 R.A.BONOMO,F.VAN DEN AKKER                                   
      TITL   NOVEL INSIGHTS INTO THE MODE OF INHIBITION OF CLASS A SHV-1  
      TITL 2 {BETA}-LACTAMASES REVEALED BY BORONIC ACID TRANSITION STATE  
      TITL 3 INHIBITORS.                                                  
      REF    ANTIMICROB.AGENTS CHEMOTHER.  V.  55   174 2011              
      REFN                   ISSN 0066-4804                               
      PMID   21041505                                                     
      DOI    10.1128/AAC.00930-10                                         

>  <REMARK>
   2                                                                      
   2 RESOLUTION.    1.30 ANGSTROMS.                                       
   3                                                                      
   3 REFINEMENT.                                                          
   3   PROGRAM     : REFMAC 5.2.0019                                      
   3   AUTHORS     : MURSHUDOV,VAGIN,DODSON                               
   3                                                                      
   3    REFINEMENT TARGET : MAXIMUM LIKELIHOOD                            
   3                                                                      
   3  DATA USED IN REFINEMENT.                                            
   3   RESOLUTION RANGE HIGH (ANGSTROMS) : 1.30                           
   3   RESOLUTION RANGE LOW  (ANGSTROMS) : 24.78                          
   3   DATA CUTOFF            (SIGMA(F)) : NULL                           
   3   COMPLETENESS FOR RANGE        (%) : 96.8                           
   3   NUMBER OF REFLECTIONS             : 52640                          
   3                                                                      
   3  FIT TO DATA USED IN REFINEMENT.                                     
   3   CROSS-VALIDATION METHOD          : THROUGHOUT                      
   3   FREE R VALUE TEST SET SELECTION  : RANDOM                          
   3   R VALUE     (WORKING + TEST SET) : 0.186                           
   3   R VALUE            (WORKING SET) : 0.186                           
   3   FREE R VALUE                     : 0.203                           
   3   FREE R VALUE TEST SET SIZE   (%) : 5.100                           
   3   FREE R VALUE TEST SET COUNT      : 2809                            
   3                                                                      
   3  FIT IN THE HIGHEST RESOLUTION BIN.                                  
   3   TOTAL NUMBER OF BINS USED           : 20                           
   3   BIN RESOLUTION RANGE HIGH       (A) : 1.30                         
   3   BIN RESOLUTION RANGE LOW        (A) : 1.33                         
   3   REFLECTION IN BIN     (WORKING SET) : 3534                         
   3   BIN COMPLETENESS (WORKING+TEST) (%) : 89.41                        
   3   BIN R VALUE           (WORKING SET) : 0.2600                       
   3   BIN FREE R VALUE SET COUNT          : 198                          
   3   BIN FREE R VALUE                    : 0.3240                       
   3                                                                      
   3  NUMBER OF NON-HYDROGEN ATOMS USED IN REFINEMENT.                    
   3   PROTEIN ATOMS            : 2024                                    
   3   NUCLEIC ACID ATOMS       : 0                                       
   3   HETEROGEN ATOMS          : 76                                      
   3   SOLVENT ATOMS            : 266                                     
   3                                                                      
   3  B VALUES.                                                           
   3   FROM WILSON PLOT           (A**2) : 13.64                          
   3   MEAN B VALUE      (OVERALL, A**2) : 16.43                          
   3   OVERALL ANISOTROPIC B VALUE.                                       
   3    B11 (A**2) : 0.00000                                              
   3    B22 (A**2) : 0.00000                                              
   3    B33 (A**2) : 0.00000                                              
   3    B12 (A**2) : 0.00000                                              
   3    B13 (A**2) : 0.00000                                              
   3    B23 (A**2) : 0.00000                                              
   3                                                                      
   3  ESTIMATED OVERALL COORDINATE ERROR.                                 
   3   ESU BASED ON R VALUE                            (A): NULL          
   3   ESU BASED ON FREE R VALUE                       (A): 0.058         
   3   ESU BASED ON MAXIMUM LIKELIHOOD                 (A): 0.036         
   3   ESU FOR B VALUES BASED ON MAXIMUM LIKELIHOOD (A**2): 0.829         
   3                                                                      
   3 CORRELATION COEFFICIENTS.                                            
   3   CORRELATION COEFFICIENT FO-FC      : 0.964                         
   3   CORRELATION COEFFICIENT FO-FC FREE : 0.961                         
   3                                                                      
   3  RMS DEVIATIONS FROM IDEAL VALUES        COUNT    RMS    WEIGHT      
   3   BOND LENGTHS REFINED ATOMS        (A):  2164 ; 0.011 ; 0.022       
   3   BOND LENGTHS OTHERS               (A):  NULL ;  NULL ;  NULL       
   3   BOND ANGLES REFINED ATOMS   (DEGREES):  2937 ; 1.481 ; 2.007       
   3   BOND ANGLES OTHERS          (DEGREES):  NULL ;  NULL ;  NULL       
   3   TORSION ANGLES, PERIOD 1    (DEGREES):   272 ; 5.885 ; 5.000       
   3   TORSION ANGLES, PERIOD 2    (DEGREES):    92 ;35.086 ;23.261       
   3   TORSION ANGLES, PERIOD 3    (DEGREES):   367 ;12.769 ;15.000       
   3   TORSION ANGLES, PERIOD 4    (DEGREES):    23 ;16.428 ;15.000       
   3   CHIRAL-CENTER RESTRAINTS       (A**3):   339 ; 0.089 ; 0.200       
   3   GENERAL PLANES REFINED ATOMS      (A):  1605 ; 0.006 ; 0.020       
   3   GENERAL PLANES OTHERS             (A):  NULL ;  NULL ;  NULL       
   3   NON-BONDED CONTACTS REFINED ATOMS (A):  1059 ; 0.209 ; 0.200       
   3   NON-BONDED CONTACTS OTHERS        (A):  NULL ;  NULL ;  NULL       
   3   NON-BONDED TORSION REFINED ATOMS  (A):  1530 ; 0.310 ; 0.200       
   3   NON-BONDED TORSION OTHERS         (A):  NULL ;  NULL ;  NULL       
   3   H-BOND (X...Y) REFINED ATOMS      (A):   197 ; 0.127 ; 0.200       
   3   H-BOND (X...Y) OTHERS             (A):  NULL ;  NULL ;  NULL       
   3   POTENTIAL METAL-ION REFINED ATOMS (A):  NULL ;  NULL ;  NULL       
   3   POTENTIAL METAL-ION OTHERS        (A):  NULL ;  NULL ;  NULL       
   3   SYMMETRY VDW REFINED ATOMS        (A):    53 ; 0.175 ; 0.200       
   3   SYMMETRY VDW OTHERS               (A):  NULL ;  NULL ;  NULL       
   3   SYMMETRY H-BOND REFINED ATOMS     (A):    33 ; 0.111 ; 0.200       
   3   SYMMETRY H-BOND OTHERS            (A):  NULL ;  NULL ;  NULL       
   3   SYMMETRY METAL-ION REFINED ATOMS  (A):  NULL ;  NULL ;  NULL       
   3   SYMMETRY METAL-ION OTHERS         (A):  NULL ;  NULL ;  NULL       
   3                                                                      
   3  ISOTROPIC THERMAL FACTOR RESTRAINTS.     COUNT   RMS    WEIGHT      
   3   MAIN-CHAIN BOND REFINED ATOMS  (A**2):  1370 ; 2.191 ; 2.000       
   3   MAIN-CHAIN BOND OTHER ATOMS    (A**2):  NULL ;  NULL ;  NULL       
   3   MAIN-CHAIN ANGLE REFINED ATOMS (A**2):  2140 ; 2.603 ; 3.000       
   3   MAIN-CHAIN ANGLE OTHER ATOMS   (A**2):  NULL ;  NULL ;  NULL       
   3   SIDE-CHAIN BOND REFINED ATOMS  (A**2):   884 ; 3.483 ; 2.000       
   3   SIDE-CHAIN BOND OTHER ATOMS    (A**2):  NULL ;  NULL ;  NULL       
   3   SIDE-CHAIN ANGLE REFINED ATOMS (A**2):   793 ; 5.168 ; 3.000       
   3   SIDE-CHAIN ANGLE OTHER ATOMS   (A**2):  NULL ;  NULL ;  NULL       
   3   LONG RANGE B REFINED ATOMS     (A**2):  NULL ;  NULL ;  NULL       
   3   LONG RANGE B OTHER ATOMS       (A**2):  NULL ;  NULL ;  NULL       
   3                                                                      
   3 ANISOTROPIC THERMAL FACTOR RESTRAINTS.    COUNT   RMS   WEIGHT       
   3   RIGID-BOND RESTRAINTS          (A**2):  NULL ;  NULL ;  NULL       
   3   SPHERICITY; FREE ATOMS         (A**2):  NULL ;  NULL ;  NULL       
   3   SPHERICITY; BONDED ATOMS       (A**2):  NULL ;  NULL ;  NULL       
   3                                                                      
   3  NCS RESTRAINTS STATISTICS                                           
   3   NUMBER OF DIFFERENT NCS GROUPS : NULL                              
   3                                                                      
   3  TLS DETAILS                                                         
   3   NUMBER OF TLS GROUPS  : NULL                                       
   3                                                                      
   3  BULK SOLVENT MODELLING.                                             
   3   METHOD USED : MASK                                                 
   3   PARAMETERS FOR MASK CALCULATION                                    
   3   VDW PROBE RADIUS   : 1.40                                          
   3   ION PROBE RADIUS   : 0.80                                          
   3   SHRINKAGE RADIUS   : 0.80                                          
   3                                                                      
   3  OTHER REFINEMENT REMARKS: HYDROGENS HAVE BEEN ADDED IN THE RIDING   
   3  POSITIONS                                                           
   4                                                                      
   4 3MXR COMPLIES WITH FORMAT V. 3.30, 13-JUL-11                         
 100                                                                      
 100 THIS ENTRY HAS BEEN PROCESSED BY RCSB ON 30-JUL-10.                  
 100 THE DEPOSITION ID IS D_1000059126.                                   
 200                                                                      
 200 EXPERIMENTAL DETAILS                                                 
 200  EXPERIMENT TYPE                : X-RAY DIFFRACTION                  
 200  DATE OF DATA COLLECTION        : 13-APR-09                          
 200  TEMPERATURE           (KELVIN) : 100                                
 200  PH                             : 7.0                                
 200  NUMBER OF CRYSTALS USED        : 1                                  
 200                                                                      
 200  SYNCHROTRON              (Y/N) : Y                                  
 200  RADIATION SOURCE               : SSRL                               
 200  BEAMLINE                       : BL7-1                              
 200  X-RAY GENERATOR MODEL          : NULL                               
 200  MONOCHROMATIC OR LAUE    (M/L) : M                                  
 200  WAVELENGTH OR RANGE        (A) : 0.97946                            
 200  MONOCHROMATOR                  : SIDE SCATTERING I-BEAM BENT        
 200                                   SINGLE CRYSTAL, ASYMMETRIC CUT     
 200                                   4.9650 DEG.                        
 200  OPTICS                         : MIRRORS                            
 200                                                                      
 200  DETECTOR TYPE                  : CCD                                
 200  DETECTOR MANUFACTURER          : ADSC QUANTUM 315R                  
 200  INTENSITY-INTEGRATION SOFTWARE : HKL-2000                           
 200  DATA SCALING SOFTWARE          : HKL-2000                           
 200                                                                      
 200  NUMBER OF UNIQUE REFLECTIONS   : 55487                              
 200  RESOLUTION RANGE HIGH      (A) : 1.300                              
 200  RESOLUTION RANGE LOW       (A) : 50.000                             
 200  REJECTION CRITERIA  (SIGMA(I)) : 1.000                              
 200                                                                      
 200 OVERALL.                                                             
 200  COMPLETENESS FOR RANGE     (%) : 28.2                               
 200  DATA REDUNDANCY                : 3.600                              
 200  R MERGE                    (I) : 0.05500                            
 200  R SYM                      (I) : NULL                               
 200  <I/SIGMA(I)> FOR THE DATA SET  : 19.1000                            
 200                                                                      
 200 IN THE HIGHEST RESOLUTION SHELL.                                     
 200  HIGHEST RESOLUTION SHELL, RANGE HIGH (A) : 1.30                     
 200  HIGHEST RESOLUTION SHELL, RANGE LOW  (A) : 1.35                     
 200  COMPLETENESS FOR SHELL     (%) : 92.0                               
 200  DATA REDUNDANCY IN SHELL       : 3.60                               
 200  R MERGE FOR SHELL          (I) : 0.32900                            
 200  R SYM FOR SHELL            (I) : NULL                               
 200  <I/SIGMA(I)> FOR SHELL         : 3.100                              
 200                                                                      
 200 DIFFRACTION PROTOCOL: SINGLE WAVELENGTH                              
 200 METHOD USED TO DETERMINE THE STRUCTURE: MOLECULAR REPLACEMENT        
 200 SOFTWARE USED: MOLECULAR REPLACEMENT                                 
 200 STARTING MODEL: PDB ENTRY 1VM1                                       
 200                                                                      
 200 REMARK: NULL                                                         
 280                                                                      
 280 CRYSTAL                                                              
 280 SOLVENT CONTENT, VS   (%): 37.92                                     
 280 MATTHEWS COEFFICIENT, VM (ANGSTROMS**3/DA): 1.98                     
 280                                                                      
 280 CRYSTALLIZATION CONDITIONS: 20-30% PEG 6000, 0.1M HEPES, 0.56MM      
 280  CYMAL-6, PH 7.0, VAPOR DIFFUSION, SITTING DROP, TEMPERATURE         
 280  293.0K                                                              
 290                                                                      
 290 CRYSTALLOGRAPHIC SYMMETRY                                            
 290 SYMMETRY OPERATORS FOR SPACE GROUP: P 21 21 21                       
 290                                                                      
 290      SYMOP   SYMMETRY                                                
 290     NNNMMM   OPERATOR                                                
 290       1555   X,Y,Z                                                   
 290       2555   -X+1/2,-Y,Z+1/2                                         
 290       3555   -X,Y+1/2,-Z+1/2                                         
 290       4555   X+1/2,-Y+1/2,-Z                                         
 290                                                                      
 290     WHERE NNN -> OPERATOR NUMBER                                     
 290           MMM -> TRANSLATION VECTOR                                  
 290                                                                      
 290 CRYSTALLOGRAPHIC SYMMETRY TRANSFORMATIONS                            
 290 THE FOLLOWING TRANSFORMATIONS OPERATE ON THE ATOM/HETATM             
 290 RECORDS IN THIS ENTRY TO PRODUCE CRYSTALLOGRAPHICALLY                
 290 RELATED MOLECULES.                                                   
 290   SMTRY1   1  1.000000  0.000000  0.000000        0.00000            
 290   SMTRY2   1  0.000000  1.000000  0.000000        0.00000            
 290   SMTRY3   1  0.000000  0.000000  1.000000        0.00000            
 290   SMTRY1   2 -1.000000  0.000000  0.000000       24.79350            
 290   SMTRY2   2  0.000000 -1.000000  0.000000        0.00000            
 290   SMTRY3   2  0.000000  0.000000  1.000000       41.51800            
 290   SMTRY1   3 -1.000000  0.000000  0.000000        0.00000            
 290   SMTRY2   3  0.000000  1.000000  0.000000       27.81950            
 290   SMTRY3   3  0.000000  0.000000 -1.000000       41.51800            
 290   SMTRY1   4  1.000000  0.000000  0.000000       24.79350            
 290   SMTRY2   4  0.000000 -1.000000  0.000000       27.81950            
 290   SMTRY3   4  0.000000  0.000000 -1.000000        0.00000            
 290                                                                      
 290 REMARK: NULL                                                         
 300                                                                      
 300 BIOMOLECULE: 1                                                       
 300 SEE REMARK 350 FOR THE AUTHOR PROVIDED AND/OR PROGRAM                
 300 GENERATED ASSEMBLY INFORMATION FOR THE STRUCTURE IN                  
 300 THIS ENTRY. THE REMARK MAY ALSO PROVIDE INFORMATION ON               
 300 BURIED SURFACE AREA.                                                 
 350                                                                      
 350 COORDINATES FOR A COMPLETE MULTIMER REPRESENTING THE KNOWN           
 350 BIOLOGICALLY SIGNIFICANT OLIGOMERIZATION STATE OF THE                
 350 MOLECULE CAN BE GENERATED BY APPLYING BIOMT TRANSFORMATIONS          
 350 GIVEN BELOW.  BOTH NON-CRYSTALLOGRAPHIC AND                          
 350 CRYSTALLOGRAPHIC OPERATIONS ARE GIVEN.                               
 350                                                                      
 350 BIOMOLECULE: 1                                                       
 350 AUTHOR DETERMINED BIOLOGICAL UNIT: MONOMERIC                         
 350 SOFTWARE DETERMINED QUATERNARY STRUCTURE: MONOMERIC                  
 350 SOFTWARE USED: PISA                                                  
 350 APPLY THE FOLLOWING TO CHAINS: A                                     
 350   BIOMT1   1  1.000000  0.000000  0.000000        0.00000            
 350   BIOMT2   1  0.000000  1.000000  0.000000        0.00000            
 350   BIOMT3   1  0.000000  0.000000  1.000000        0.00000            
 500                                                                      
 500 GEOMETRY AND STEREOCHEMISTRY                                         
 500 SUBTOPIC: TORSION ANGLES                                             
 500                                                                      
 500 TORSION ANGLES OUTSIDE THE EXPECTED RAMACHANDRAN REGIONS:            
 500 (M=MODEL NUMBER; RES=RESIDUE NAME; C=CHAIN IDENTIFIER;               
 500 SSEQ=SEQUENCE NUMBER; I=INSERTION CODE).                             
 500                                                                      
 500 STANDARD TABLE:                                                      
 500 FORMAT:(10X,I3,1X,A3,1X,A1,I4,A1,4X,F7.2,3X,F7.2)                    
 500                                                                      
 500 EXPECTED VALUES: GJ KLEYWEGT AND TA JONES (1996). PHI/PSI-           
 500 CHOLOGY: RAMACHANDRAN REVISITED. STRUCTURE 4, 1395 - 1400            
 500                                                                      
 500  M RES CSSEQI        PSI       PHI                                   
 500    LEU A  57     -111.45   -104.07                                   
 500    MET A  69     -141.20     48.77                                   
 500    TYR A 105       61.94     60.88                                   
 500                                                                      
 500 REMARK: NULL                                                         
 610                                                                      
 610 MISSING HETEROATOM                                                   
 610 THE FOLLOWING RESIDUES HAVE MISSING ATOMS (M=MODEL NUMBER;           
 610 RES=RESIDUE NAME; C=CHAIN IDENTIFIER; SSEQ=SEQUENCE NUMBER;          
 610 I=INSERTION CODE):                                                   
 610   M RES C SSEQI                                                      
 610     MA4 A  401                                                       
 800                                                                      
 800 SITE                                                                 
 800 SITE_IDENTIFIER: AC1                                                 
 800 EVIDENCE_CODE: SOFTWARE                                              
 800 SITE_DESCRIPTION: BINDING SITE FOR RESIDUE CZ8 A 1                   
 800                                                                      
 800 SITE_IDENTIFIER: AC2                                                 
 800 EVIDENCE_CODE: SOFTWARE                                              
 800 SITE_DESCRIPTION: BINDING SITE FOR RESIDUE MA4 A 400                 
 800                                                                      
 800 SITE_IDENTIFIER: AC3                                                 
 800 EVIDENCE_CODE: SOFTWARE                                              
 800 SITE_DESCRIPTION: BINDING SITE FOR RESIDUE MA4 A 401                 
 900                                                                      
 900 RELATED ENTRIES                                                      
 900 RELATED ID: 3MKE   RELATED DB: PDB                                   
 900 THE SAME PROTEIN COMPLEXED WITH CEFTAZIDIME BATSI                    
 900 RELATED ID: 3MKF   RELATED DB: PDB                                   
 900 THE SAME PROTEIN COMPLEXED WITH CEFOPERAZONE BATSI                   
 900 RELATED ID: 3MXS   RELATED DB: PDB                                   

>  <DBREF>
 3MXR A   26   292  UNP    P0AD64   BLA1_KLEPN      22    286             

>  <SEQRES>
   1 A  265  SER PRO GLN PRO LEU GLU GLN ILE LYS LEU SER GLU SER          
   2 A  265  GLN LEU SER GLY ARG VAL GLY MET ILE GLU MET ASP LEU          
   3 A  265  ALA SER GLY ARG THR LEU THR ALA TRP ARG ALA ASP GLU          
   4 A  265  ARG PHE PRO MET MET SER THR PHE LYS VAL VAL LEU CYS          
   5 A  265  GLY ALA VAL LEU ALA ARG VAL ASP ALA GLY ASP GLU GLN          
   6 A  265  LEU GLU ARG LYS ILE HIS TYR ARG GLN GLN ASP LEU VAL          
   7 A  265  ASP TYR SER PRO VAL SER GLU LYS HIS LEU ALA ASP GLY          
   8 A  265  MET THR VAL GLY GLU LEU CYS ALA ALA ALA ILE THR MET          
   9 A  265  SER ASP ASN SER ALA ALA ASN LEU LEU LEU ALA THR VAL          
  10 A  265  GLY GLY PRO ALA GLY LEU THR ALA PHE LEU ARG GLN ILE          
  11 A  265  GLY ASP ASN VAL THR ARG LEU ASP ARG TRP GLU THR GLU          
  12 A  265  LEU ASN GLU ALA LEU PRO GLY ASP ALA ARG ASP THR THR          
  13 A  265  THR PRO ALA SER MET ALA ALA THR LEU ARG LYS LEU LEU          
  14 A  265  THR SER GLN ARG LEU SER ALA ARG SER GLN ARG GLN LEU          
  15 A  265  LEU GLN TRP MET VAL ASP ASP ARG VAL ALA GLY PRO LEU          
  16 A  265  ILE ARG SER VAL LEU PRO ALA GLY TRP PHE ILE ALA ASP          
  17 A  265  LYS THR GLY ALA GLY GLU ARG GLY ALA ARG GLY ILE VAL          
  18 A  265  ALA LEU LEU GLY PRO ASN ASN LYS ALA GLU ARG ILE VAL          
  19 A  265  VAL ILE TYR LEU ARG ASP THR PRO ALA SER MET ALA GLU          
  20 A  265  ARG ASN GLN GLN ILE ALA GLY ILE GLY ALA ALA LEU ILE          
  21 A  265  GLU HIS TRP GLN ARG                                          

>  <HET>
 CZ8  A   1      30                                                       
 MA4  A 400      35                                                       
 MA4  A 401      11                                                       

>  <HETNAM>
     CZ8 ({[(2R)-2-{[(4-ETHYL-2,3-DIOXOPIPERAZIN-1-YL)                    
   2 CZ8  CARBONYL]AMINO}-4-(4-HYDROXYPHENYL)                             
   3 CZ8  BUTANOYL]AMINO}METHYL)BORONIC ACID                              
     MA4 CYCLOHEXYL-HEXYL-BETA-D-MALTOSIDE                                

>  <FORMUL>
   2  CZ8    C18 H25 B N4 O7                                              
   3  MA4    2(C24 H44 O11)                                               
   5  HOH   *266(H2 O)                                                    

>  <HELIX>
   1   1 GLN A   28  SER A   41  1                                  14    
   2   2 THR A   71  ALA A   86  1                                  16    
   3   3 ARG A   98  LEU A  102  5                                   5    
   4   4 VAL A  108  LEU A  113  5                                   6    
   5   5 VAL A  119  MET A  129  1                                  11    
   6   6 ASP A  131  VAL A  142  1                                  12    
   7   7 GLY A  143  ILE A  155  1                                  13    
   8   8 THR A  167  GLU A  171  5                                   5    
   9   9 THR A  182  SER A  196  1                                  15    
  10  10 SER A  200  ASP A  213  1                                  14    
  11  11 ALA A  217  LEU A  225  1                                   9    
  12  12 SER A  271  HIS A  289  1                                  19    

>  <SHEET>
   1   A 5 THR A  56  TRP A  60  0                                        
   2   A 5 ARG A  43  ASP A  50 -1  N  GLU A  48   O  LEU A  57           
   3   A 5 ARG A 259  ARG A 266 -1  O  ILE A 260   N  MET A  49           
   4   A 5 ARG A 244  GLY A 251 -1  N  ARG A 244   O  LEU A 265           
   5   A 5 PHE A 230  ALA A 237 -1  N  PHE A 230   O  GLY A 251           
   1   B 2 PHE A  66  PRO A  67  0                                        
   2   B 2 THR A 180  THR A 181 -1  O  THR A 181   N  PHE A  66           
   1   C 2 LYS A  94  ILE A  95  0                                        
   2   C 2 MET A 117  THR A 118 -1  O  MET A 117   N  ILE A  95           

>  <SSBOND>
   1 CYS A   77    CYS A  123                          1555   1555  2.07  

>  <LINK>
       OG  SER A  70                 BAY CZ8 A   1     1555   1555  1.46  

>  <CISPEP>
   1 GLU A  166    THR A  167          0         3.15                     

>  <SITE>
   1 AC1 11 MET A  69  SER A  70  TYR A 105  ASN A 132                    
   2 AC1 11 GLU A 166  THR A 167  ASN A 170  GLY A 236                    
   3 AC1 11 ALA A 237  GLY A 238  GLU A 240                               
   1 AC2 17 HOH A   4  HOH A   7  ARG A  93  HIS A  96                    
   2 AC2 17 VAL A 224  PRO A 226  ALA A 248  VAL A 261                    
   3 AC2 17 ILE A 263  ALA A 280  ALA A 284  GLU A 288                    
   4 AC2 17 HOH A 375  HOH A 402  HOH A 448  HOH A 500                    
   5 AC2 17 HOH A 521                                                     
   1 AC3  3 ARG A 244  ASN A 276  ILE A 279                               

>  <ORIGX1>
      1.000000  0.000000  0.000000        0.00000                         

>  <ORIGX2>
      0.000000  1.000000  0.000000        0.00000                         

>  <ORIGX3>
      0.000000  0.000000  1.000000        0.00000                         

>  <SCALE1>
      0.020167  0.000000  0.000000        0.00000                         

>  <SCALE2>
      0.000000  0.017973  0.000000        0.00000                         

>  <SCALE3>
      0.000000  0.000000  0.012043        0.00000                         

>  <MASTER>
      285    0    3   12    9    0    9    6 2366    1   79   21          

$$$$
