start_structures/Ligand_Substrate/Ligand_Complex_Stripped/CZ9_3MXS.pdb
 OpenBabel08222315203D

 35 36  0  0  1  0  0  0  0  0999 V2000
   33.3850   60.3930    8.4460 N   0  0  0  0  0  0  0  0  0  0  0  0
   32.8560   59.2580    7.7030 C   0  0  2  0  0  0  0  0  0  0  0  0
   33.4190   57.9300    8.1750 C   0  0  0  0  0  0  0  0  0  0  0  0
   32.9580   56.8780    7.7330 O   0  0  0  0  0  0  0  0  0  0  0  0
   33.0910   59.4190    6.2070 C   0  0  0  0  0  0  0  0  0  0  0  0
   32.2300   60.4060    5.6610 O   0  0  0  0  0  0  0  0  0  0  0  0
   31.5280   65.0120    4.1970 C   0  0  0  0  0  0  0  0  0  0  0  0
   30.8850   67.3070    4.4090 N   0  0  0  0  0  0  0  0  0  0  0  0
   30.5260   64.8240    3.5160 O   0  0  0  0  0  0  0  0  0  0  0  0
   32.0540   66.4090    4.3980 C   0  0  2  0  0  0  0  0  0  0  0  0
   33.0400   66.7370    3.2790 C   0  0  0  0  0  0  0  0  0  0  0  0
   33.4740   68.1760    3.4500 C   0  0  0  0  0  0  0  0  0  0  0  0
   34.5980   72.1340    3.9600 O   0  0  0  0  0  0  0  0  0  0  0  0
   34.2320   70.8320    3.8020 C   0  0  0  0  0  0  0  0  0  0  0  0
   26.4550   73.3100    4.7440 C   0  0  0  0  0  0  0  0  0  0  0  0
   31.7970   68.4670    6.0990 O   0  0  0  0  0  0  0  0  0  0  0  0
   27.1370   70.4750    3.0160 O   0  0  0  0  0  0  0  0  0  0  0  0
   28.9900   68.5160    3.1430 O   0  0  0  0  0  0  0  0  0  0  0  0
   31.3520   62.0290    7.1900 O   0  0  0  0  0  0  0  0  0  0  0  0
   33.7490   62.2190    6.2180 O   0  0  0  0  0  0  0  0  0  0  0  0
   26.4250   71.8730    5.2240 C   0  0  0  0  0  0  0  0  0  0  0  0
   31.6930   62.6570    4.6640 C   0  0  0  0  0  0  0  0  0  0  0  0
   28.0160   70.5060    6.3510 C   0  0  0  0  0  0  0  0  0  0  0  0
   29.4190   69.8820    6.3920 C   0  0  0  0  0  0  0  0  0  0  0  0
   32.1840   64.0260    4.8170 N   0  0  0  0  0  0  0  0  0  0  0  0
   30.9340   68.3720    5.2320 C   0  0  0  0  0  0  0  0  0  0  0  0
   27.8810   70.3990    3.9830 C   0  0  0  0  0  0  0  0  0  0  0  0
   28.9720   69.3730    4.0140 C   0  0  0  0  0  0  0  0  0  0  0  0
   32.2700   61.8750    5.9640 B   0  0  0  0  0  0  0  0  0  0  0  0
   27.7600   71.2830    5.1390 N   0  0  0  0  0  0  0  0  0  0  0  0
   29.9690   69.4730    5.0910 N   0  0  0  0  0  0  0  0  0  0  0  0
   34.5490   68.4900    4.2950 C   0  0  0  0  0  0  0  0  0  0  0  0
   32.7740   69.1910    2.7830 C   0  0  0  0  0  0  0  0  0  0  0  0
   34.9370   69.8240    4.4640 C   0  0  0  0  0  0  0  0  0  0  0  0
   33.1560   70.5210    2.9650 C   0  0  0  0  0  0  0  0  0  0  0  0
  2  3  1  0  0  0  0
  2  1  1  1  0  0  0
  4  3  2  0  0  0  0
  5  2  1  0  0  0  0
  6 29  1  0  0  0  0
  6  5  1  0  0  0  0
  7  9  2  0  0  0  0
  7 10  1  0  0  0  0
  7 25  1  0  0  0  0
  8 10  1  0  0  0  0
  8 26  1  0  0  0  0
 10 11  1  6  0  0  0
 11 12  1  0  0  0  0
 12 32  2  0  0  0  0
 12 33  1  0  0  0  0
 13 14  1  0  0  0  0
 14 34  2  0  0  0  0
 14 35  1  0  0  0  0
 15 21  1  0  0  0  0
 16 26  2  0  0  0  0
 17 27  2  0  0  0  0
 18 28  2  0  0  0  0
 19 29  1  0  0  0  0
 20 29  1  0  0  0  0
 21 30  1  0  0  0  0
 22 25  1  0  0  0  0
 22 29  1  0  0  0  0
 23 24  1  0  0  0  0
 23 30  1  0  0  0  0
 24 31  1  0  0  0  0
 26 31  1  0  0  0  0
 27 28  1  0  0  0  0
 27 30  1  0  0  0  0
 28 31  1  0  0  0  0
 32 34  1  0  0  0  0
 33 35  2  0  0  0  0
M  END
>  <HEADER>
    HYDROLASE/HYDROLASE INHIBITOR           07-MAY-10   3MXS              

>  <TITLE>
    SHV-1 BETA-LACTAMASE COMPLEX WITH COMPOUND 2                          

>  <COMPND>
    MOL_ID: 1;                                                            
   2 MOLECULE: BETA-LACTAMASE SHV-1;                                      
   3 CHAIN: A;                                                            
   4 SYNONYM: PIT-2;                                                      
   5 EC: 3.5.2.6;                                                         
   6 ENGINEERED: YES                                                      

>  <SOURCE>
    MOL_ID: 1;                                                            
   2 ORGANISM_SCIENTIFIC: KLEBSIELLA PNEUMONIAE;                          
   3 ORGANISM_TAXID: 573;                                                 
   4 STRAIN: BACTERIA;                                                    
   5 GENE: BLA, SHV1;                                                     
   6 EXPRESSION_SYSTEM: ESCHERICHIA COLI;                                 
   7 EXPRESSION_SYSTEM_TAXID: 562;                                        
   8 EXPRESSION_SYSTEM_STRAIN: DH10B;                                     
   9 EXPRESSION_SYSTEM_VECTOR_TYPE: PLASMID;                              
  10 EXPRESSION_SYSTEM_PLASMID: PBC SK(-)                                 

>  <KEYWDS>
    BETA-LACTAMASE, BORONIC ACID TRANSITION STATE INHIBITOR, DRUG DESIGN, 
   2 HYDROLASE, HYDROLASE-HYDROLASE INHIBITOR COMPLEX                     

>  <EXPDTA>
    X-RAY DIFFRACTION                                                     

>  <AUTHOR>
    W.KE,F.VAN DEN AKKER                                                  

>  <REVDAT>
   3   08-NOV-17 3MXS    1       REMARK                                   
   2   05-JAN-11 3MXS    1       JRNL                                     
   1   24-NOV-10 3MXS    0                                                

>  <JRNL>
      AUTH   W.KE,J.M.SAMPSON,C.ORI,F.PRATI,S.M.DRAWZ,C.R.BETHEL,         
      AUTH 2 R.A.BONOMO,F.VAN DEN AKKER                                   
      TITL   NOVEL INSIGHTS INTO THE MODE OF INHIBITION OF CLASS A SHV-1  
      TITL 2 {BETA}-LACTAMASES REVEALED BY BORONIC ACID TRANSITION STATE  
      TITL 3 INHIBITORS.                                                  
      REF    ANTIMICROB.AGENTS CHEMOTHER.  V.  55   174 2011              
      REFN                   ISSN 0066-4804                               
      PMID   21041505                                                     
      DOI    10.1128/AAC.00930-10                                         

>  <REMARK>
   2                                                                      
   2 RESOLUTION.    1.24 ANGSTROMS.                                       
   3                                                                      
   3 REFINEMENT.                                                          
   3   PROGRAM     : REFMAC 5.2.0019                                      
   3   AUTHORS     : MURSHUDOV,VAGIN,DODSON                               
   3                                                                      
   3    REFINEMENT TARGET : MAXIMUM LIKELIHOOD                            
   3                                                                      
   3  DATA USED IN REFINEMENT.                                            
   3   RESOLUTION RANGE HIGH (ANGSTROMS) : 1.24                           
   3   RESOLUTION RANGE LOW  (ANGSTROMS) : 24.21                          
   3   DATA CUTOFF            (SIGMA(F)) : NULL                           
   3   COMPLETENESS FOR RANGE        (%) : 98.7                           
   3   NUMBER OF REFLECTIONS             : 61493                          
   3                                                                      
   3  FIT TO DATA USED IN REFINEMENT.                                     
   3   CROSS-VALIDATION METHOD          : THROUGHOUT                      
   3   FREE R VALUE TEST SET SELECTION  : RANDOM                          
   3   R VALUE     (WORKING + TEST SET) : 0.172                           
   3   R VALUE            (WORKING SET) : 0.171                           
   3   FREE R VALUE                     : 0.194                           
   3   FREE R VALUE TEST SET SIZE   (%) : 5.100                           
   3   FREE R VALUE TEST SET COUNT      : 3296                            
   3                                                                      
   3  FIT IN THE HIGHEST RESOLUTION BIN.                                  
   3   TOTAL NUMBER OF BINS USED           : 20                           
   3   BIN RESOLUTION RANGE HIGH       (A) : 1.24                         
   3   BIN RESOLUTION RANGE LOW        (A) : 1.27                         
   3   REFLECTION IN BIN     (WORKING SET) : 4470                         
   3   BIN COMPLETENESS (WORKING+TEST) (%) : 98.55                        
   3   BIN R VALUE           (WORKING SET) : 0.2230                       
   3   BIN FREE R VALUE SET COUNT          : 219                          
   3   BIN FREE R VALUE                    : 0.2370                       
   3                                                                      
   3  NUMBER OF NON-HYDROGEN ATOMS USED IN REFINEMENT.                    
   3   PROTEIN ATOMS            : 2024                                    
   3   NUCLEIC ACID ATOMS       : 0                                       
   3   HETEROGEN ATOMS          : 75                                      
   3   SOLVENT ATOMS            : 278                                     
   3                                                                      
   3  B VALUES.                                                           
   3   FROM WILSON PLOT           (A**2) : 9.92                           
   3   MEAN B VALUE      (OVERALL, A**2) : 13.85                          
   3   OVERALL ANISOTROPIC B VALUE.                                       
   3    B11 (A**2) : 0.00000                                              
   3    B22 (A**2) : 0.00000                                              
   3    B33 (A**2) : 0.00000                                              
   3    B12 (A**2) : 0.00000                                              
   3    B13 (A**2) : 0.00000                                              
   3    B23 (A**2) : 0.00000                                              
   3                                                                      
   3  ESTIMATED OVERALL COORDINATE ERROR.                                 
   3   ESU BASED ON R VALUE                            (A): NULL          
   3   ESU BASED ON FREE R VALUE                       (A): 0.049         
   3   ESU BASED ON MAXIMUM LIKELIHOOD                 (A): 0.029         
   3   ESU FOR B VALUES BASED ON MAXIMUM LIKELIHOOD (A**2): 0.644         
   3                                                                      
   3 CORRELATION COEFFICIENTS.                                            
   3   CORRELATION COEFFICIENT FO-FC      : 0.966                         
   3   CORRELATION COEFFICIENT FO-FC FREE : 0.956                         
   3                                                                      
   3  RMS DEVIATIONS FROM IDEAL VALUES        COUNT    RMS    WEIGHT      
   3   BOND LENGTHS REFINED ATOMS        (A):  2160 ; 0.010 ; 0.022       
   3   BOND LENGTHS OTHERS               (A):  NULL ;  NULL ;  NULL       
   3   BOND ANGLES REFINED ATOMS   (DEGREES):  2932 ; 1.431 ; 2.007       
   3   BOND ANGLES OTHERS          (DEGREES):  NULL ;  NULL ;  NULL       
   3   TORSION ANGLES, PERIOD 1    (DEGREES):   272 ; 6.007 ; 5.000       
   3   TORSION ANGLES, PERIOD 2    (DEGREES):    91 ;33.771 ;23.187       
   3   TORSION ANGLES, PERIOD 3    (DEGREES):   364 ;11.866 ;15.000       
   3   TORSION ANGLES, PERIOD 4    (DEGREES):    23 ;17.909 ;15.000       
   3   CHIRAL-CENTER RESTRAINTS       (A**3):   340 ; 0.088 ; 0.200       
   3   GENERAL PLANES REFINED ATOMS      (A):  1596 ; 0.006 ; 0.020       
   3   GENERAL PLANES OTHERS             (A):  NULL ;  NULL ;  NULL       
   3   NON-BONDED CONTACTS REFINED ATOMS (A):  1050 ; 0.205 ; 0.200       
   3   NON-BONDED CONTACTS OTHERS        (A):  NULL ;  NULL ;  NULL       
   3   NON-BONDED TORSION REFINED ATOMS  (A):  1531 ; 0.309 ; 0.200       
   3   NON-BONDED TORSION OTHERS         (A):  NULL ;  NULL ;  NULL       
   3   H-BOND (X...Y) REFINED ATOMS      (A):   202 ; 0.109 ; 0.200       
   3   H-BOND (X...Y) OTHERS             (A):  NULL ;  NULL ;  NULL       
   3   POTENTIAL METAL-ION REFINED ATOMS (A):  NULL ;  NULL ;  NULL       
   3   POTENTIAL METAL-ION OTHERS        (A):  NULL ;  NULL ;  NULL       
   3   SYMMETRY VDW REFINED ATOMS        (A):    57 ; 0.165 ; 0.200       
   3   SYMMETRY VDW OTHERS               (A):  NULL ;  NULL ;  NULL       
   3   SYMMETRY H-BOND REFINED ATOMS     (A):    31 ; 0.146 ; 0.200       
   3   SYMMETRY H-BOND OTHERS            (A):  NULL ;  NULL ;  NULL       
   3   SYMMETRY METAL-ION REFINED ATOMS  (A):  NULL ;  NULL ;  NULL       
   3   SYMMETRY METAL-ION OTHERS         (A):  NULL ;  NULL ;  NULL       
   3                                                                      
   3  ISOTROPIC THERMAL FACTOR RESTRAINTS.     COUNT   RMS    WEIGHT      
   3   MAIN-CHAIN BOND REFINED ATOMS  (A**2):  1370 ; 2.000 ; 2.000       
   3   MAIN-CHAIN BOND OTHER ATOMS    (A**2):  NULL ;  NULL ;  NULL       
   3   MAIN-CHAIN ANGLE REFINED ATOMS (A**2):  2137 ; 2.299 ; 3.000       
   3   MAIN-CHAIN ANGLE OTHER ATOMS   (A**2):  NULL ;  NULL ;  NULL       
   3   SIDE-CHAIN BOND REFINED ATOMS  (A**2):   884 ; 3.110 ; 2.000       
   3   SIDE-CHAIN BOND OTHER ATOMS    (A**2):  NULL ;  NULL ;  NULL       
   3   SIDE-CHAIN ANGLE REFINED ATOMS (A**2):   791 ; 4.822 ; 3.000       
   3   SIDE-CHAIN ANGLE OTHER ATOMS   (A**2):  NULL ;  NULL ;  NULL       
   3   LONG RANGE B REFINED ATOMS     (A**2):  NULL ;  NULL ;  NULL       
   3   LONG RANGE B OTHER ATOMS       (A**2):  NULL ;  NULL ;  NULL       
   3                                                                      
   3 ANISOTROPIC THERMAL FACTOR RESTRAINTS.    COUNT   RMS   WEIGHT       
   3   RIGID-BOND RESTRAINTS          (A**2):  NULL ;  NULL ;  NULL       
   3   SPHERICITY; FREE ATOMS         (A**2):  NULL ;  NULL ;  NULL       
   3   SPHERICITY; BONDED ATOMS       (A**2):  NULL ;  NULL ;  NULL       
   3                                                                      
   3  NCS RESTRAINTS STATISTICS                                           
   3   NUMBER OF DIFFERENT NCS GROUPS : NULL                              
   3                                                                      
   3  TLS DETAILS                                                         
   3   NUMBER OF TLS GROUPS  : NULL                                       
   3                                                                      
   3  BULK SOLVENT MODELLING.                                             
   3   METHOD USED : MASK                                                 
   3   PARAMETERS FOR MASK CALCULATION                                    
   3   VDW PROBE RADIUS   : 1.40                                          
   3   ION PROBE RADIUS   : 0.80                                          
   3   SHRINKAGE RADIUS   : 0.80                                          
   3                                                                      
   3  OTHER REFINEMENT REMARKS: HYDROGENS HAVE BEEN ADDED IN THE RIDING   
   3  POSITIONS                                                           
   4                                                                      
   4 3MXS COMPLIES WITH FORMAT V. 3.30, 13-JUL-11                         
 100                                                                      
 100 THIS ENTRY HAS BEEN PROCESSED BY RCSB ON 30-JUL-10.                  
 100 THE DEPOSITION ID IS D_1000059127.                                   
 200                                                                      
 200 EXPERIMENTAL DETAILS                                                 
 200  EXPERIMENT TYPE                : X-RAY DIFFRACTION                  
 200  DATE OF DATA COLLECTION        : 13-APR-09                          
 200  TEMPERATURE           (KELVIN) : 100                                
 200  PH                             : 7.0                                
 200  NUMBER OF CRYSTALS USED        : 1                                  
 200                                                                      
 200  SYNCHROTRON              (Y/N) : Y                                  
 200  RADIATION SOURCE               : SSRL                               
 200  BEAMLINE                       : BL7-1                              
 200  X-RAY GENERATOR MODEL          : NULL                               
 200  MONOCHROMATIC OR LAUE    (M/L) : M                                  
 200  WAVELENGTH OR RANGE        (A) : 0.97946                            
 200  MONOCHROMATOR                  : SIDE SCATTERING I-BEAM BENT        
 200                                   SINGLE CRYSTAL, ASYMMETRIC CUT     
 200                                   4.9650 DEG                         
 200  OPTICS                         : MIRRORS                            
 200                                                                      
 200  DETECTOR TYPE                  : CCD                                
 200  DETECTOR MANUFACTURER          : ADSC QUANTUM 315R                  
 200  INTENSITY-INTEGRATION SOFTWARE : HKL-2000                           
 200  DATA SCALING SOFTWARE          : HKL-2000                           
 200                                                                      
 200  NUMBER OF UNIQUE REFLECTIONS   : 64837                              
 200  RESOLUTION RANGE HIGH      (A) : 1.240                              
 200  RESOLUTION RANGE LOW       (A) : 50.000                             
 200  REJECTION CRITERIA  (SIGMA(I)) : 1.000                              
 200                                                                      
 200 OVERALL.                                                             
 200  COMPLETENESS FOR RANGE     (%) : 36.9                               
 200  DATA REDUNDANCY                : 2.800                              
 200  R MERGE                    (I) : 0.04800                            
 200  R SYM                      (I) : NULL                               
 200  <I/SIGMA(I)> FOR THE DATA SET  : 19.7000                            
 200                                                                      
 200 IN THE HIGHEST RESOLUTION SHELL.                                     
 200  HIGHEST RESOLUTION SHELL, RANGE HIGH (A) : 1.24                     
 200  HIGHEST RESOLUTION SHELL, RANGE LOW  (A) : 1.28                     
 200  COMPLETENESS FOR SHELL     (%) : 95.8                               
 200  DATA REDUNDANCY IN SHELL       : 2.80                               
 200  R MERGE FOR SHELL          (I) : 0.24000                            
 200  R SYM FOR SHELL            (I) : NULL                               
 200  <I/SIGMA(I)> FOR SHELL         : 3.800                              
 200                                                                      
 200 DIFFRACTION PROTOCOL: SINGLE WAVELENGTH                              
 200 METHOD USED TO DETERMINE THE STRUCTURE: MOLECULAR REPLACEMENT        
 200 SOFTWARE USED: MOLECULAR REPLACEMENT                                 
 200 STARTING MODEL: PDB ENTRY 1VM1                                       
 200                                                                      
 200 REMARK: NULL                                                         
 280                                                                      
 280 CRYSTAL                                                              
 280 SOLVENT CONTENT, VS   (%): 37.98                                     
 280 MATTHEWS COEFFICIENT, VM (ANGSTROMS**3/DA): 1.98                     
 280                                                                      
 280 CRYSTALLIZATION CONDITIONS: 20-30% PEG 6000, 0.1M HEPES, 0.56MM      
 280  CYMAL-6, PH 7.0, VAPOR DIFFUSION, SITTING DROP, TEMPERATURE         
 280  293.0K                                                              
 290                                                                      
 290 CRYSTALLOGRAPHIC SYMMETRY                                            
 290 SYMMETRY OPERATORS FOR SPACE GROUP: P 21 21 21                       
 290                                                                      
 290      SYMOP   SYMMETRY                                                
 290     NNNMMM   OPERATOR                                                
 290       1555   X,Y,Z                                                   
 290       2555   -X+1/2,-Y,Z+1/2                                         
 290       3555   -X,Y+1/2,-Z+1/2                                         
 290       4555   X+1/2,-Y+1/2,-Z                                         
 290                                                                      
 290     WHERE NNN -> OPERATOR NUMBER                                     
 290           MMM -> TRANSLATION VECTOR                                  
 290                                                                      
 290 CRYSTALLOGRAPHIC SYMMETRY TRANSFORMATIONS                            
 290 THE FOLLOWING TRANSFORMATIONS OPERATE ON THE ATOM/HETATM             
 290 RECORDS IN THIS ENTRY TO PRODUCE CRYSTALLOGRAPHICALLY                
 290 RELATED MOLECULES.                                                   
 290   SMTRY1   1  1.000000  0.000000  0.000000        0.00000            
 290   SMTRY2   1  0.000000  1.000000  0.000000        0.00000            
 290   SMTRY3   1  0.000000  0.000000  1.000000        0.00000            
 290   SMTRY1   2 -1.000000  0.000000  0.000000       24.85150            
 290   SMTRY2   2  0.000000 -1.000000  0.000000        0.00000            
 290   SMTRY3   2  0.000000  0.000000  1.000000       41.57950            
 290   SMTRY1   3 -1.000000  0.000000  0.000000        0.00000            
 290   SMTRY2   3  0.000000  1.000000  0.000000       27.73950            
 290   SMTRY3   3  0.000000  0.000000 -1.000000       41.57950            
 290   SMTRY1   4  1.000000  0.000000  0.000000       24.85150            
 290   SMTRY2   4  0.000000 -1.000000  0.000000       27.73950            
 290   SMTRY3   4  0.000000  0.000000 -1.000000        0.00000            
 290                                                                      
 290 REMARK: NULL                                                         
 300                                                                      
 300 BIOMOLECULE: 1                                                       
 300 SEE REMARK 350 FOR THE AUTHOR PROVIDED AND/OR PROGRAM                
 300 GENERATED ASSEMBLY INFORMATION FOR THE STRUCTURE IN                  
 300 THIS ENTRY. THE REMARK MAY ALSO PROVIDE INFORMATION ON               
 300 BURIED SURFACE AREA.                                                 
 350                                                                      
 350 COORDINATES FOR A COMPLETE MULTIMER REPRESENTING THE KNOWN           
 350 BIOLOGICALLY SIGNIFICANT OLIGOMERIZATION STATE OF THE                
 350 MOLECULE CAN BE GENERATED BY APPLYING BIOMT TRANSFORMATIONS          
 350 GIVEN BELOW.  BOTH NON-CRYSTALLOGRAPHIC AND                          
 350 CRYSTALLOGRAPHIC OPERATIONS ARE GIVEN.                               
 350                                                                      
 350 BIOMOLECULE: 1                                                       
 350 AUTHOR DETERMINED BIOLOGICAL UNIT: MONOMERIC                         
 350 SOFTWARE DETERMINED QUATERNARY STRUCTURE: MONOMERIC                  
 350 SOFTWARE USED: PISA                                                  
 350 APPLY THE FOLLOWING TO CHAINS: A                                     
 350   BIOMT1   1  1.000000  0.000000  0.000000        0.00000            
 350   BIOMT2   1  0.000000  1.000000  0.000000        0.00000            
 350   BIOMT3   1  0.000000  0.000000  1.000000        0.00000            
 500                                                                      
 500 GEOMETRY AND STEREOCHEMISTRY                                         
 500 SUBTOPIC: TORSION ANGLES                                             
 500                                                                      
 500 TORSION ANGLES OUTSIDE THE EXPECTED RAMACHANDRAN REGIONS:            
 500 (M=MODEL NUMBER; RES=RESIDUE NAME; C=CHAIN IDENTIFIER;               
 500 SSEQ=SEQUENCE NUMBER; I=INSERTION CODE).                             
 500                                                                      
 500 STANDARD TABLE:                                                      
 500 FORMAT:(10X,I3,1X,A3,1X,A1,I4,A1,4X,F7.2,3X,F7.2)                    
 500                                                                      
 500 EXPECTED VALUES: GJ KLEYWEGT AND TA JONES (1996). PHI/PSI-           
 500 CHOLOGY: RAMACHANDRAN REVISITED. STRUCTURE 4, 1395 - 1400            
 500                                                                      
 500  M RES CSSEQI        PSI       PHI                                   
 500    MET A  69     -141.26     51.21                                   
 500    TYR A 105       62.04     61.52                                   
 500                                                                      
 500 REMARK: NULL                                                         
 610                                                                      
 610 MISSING HETEROATOM                                                   
 610 THE FOLLOWING RESIDUES HAVE MISSING ATOMS (M=MODEL NUMBER;           
 610 RES=RESIDUE NAME; C=CHAIN IDENTIFIER; SSEQ=SEQUENCE NUMBER;          
 610 I=INSERTION CODE):                                                   
 610   M RES C SSEQI                                                      
 610     MA4 A  401                                                       
 800                                                                      
 800 SITE                                                                 
 800 SITE_IDENTIFIER: AC1                                                 
 800 EVIDENCE_CODE: SOFTWARE                                              
 800 SITE_DESCRIPTION: BINDING SITE FOR RESIDUE CZ9 A 1                   
 800                                                                      
 800 SITE_IDENTIFIER: AC2                                                 
 800 EVIDENCE_CODE: SOFTWARE                                              
 800 SITE_DESCRIPTION: BINDING SITE FOR RESIDUE MA4 A 400                 
 800                                                                      
 800 SITE_IDENTIFIER: AC3                                                 
 800 EVIDENCE_CODE: SOFTWARE                                              
 800 SITE_DESCRIPTION: BINDING SITE FOR RESIDUE MA4 A 401                 
 900                                                                      
 900 RELATED ENTRIES                                                      
 900 RELATED ID: 3MKE   RELATED DB: PDB                                   
 900 THE SAME PROTEIN COMPLEXED WITH CEFTAZIDIME BATSI                    
 900 RELATED ID: 3MKF   RELATED DB: PDB                                   
 900 THE SAME PROTEIN COMPLEXED WITH CEFOPERAZONE BATSI                   
 900 RELATED ID: 3MXR   RELATED DB: PDB                                   
 900 THE SAME PROTEIN COMPLEXED WITH COMPOUND 1                           

>  <DBREF>
 3MXS A   26   292  UNP    P0AD64   BLA1_KLEPN      22    286             

>  <SEQRES>
   1 A  265  SER PRO GLN PRO LEU GLU GLN ILE LYS LEU SER GLU SER          
   2 A  265  GLN LEU SER GLY ARG VAL GLY MET ILE GLU MET ASP LEU          
   3 A  265  ALA SER GLY ARG THR LEU THR ALA TRP ARG ALA ASP GLU          
   4 A  265  ARG PHE PRO MET MET SER THR PHE LYS VAL VAL LEU CYS          
   5 A  265  GLY ALA VAL LEU ALA ARG VAL ASP ALA GLY ASP GLU GLN          
   6 A  265  LEU GLU ARG LYS ILE HIS TYR ARG GLN GLN ASP LEU VAL          
   7 A  265  ASP TYR SER PRO VAL SER GLU LYS HIS LEU ALA ASP GLY          
   8 A  265  MET THR VAL GLY GLU LEU CYS ALA ALA ALA ILE THR MET          
   9 A  265  SER ASP ASN SER ALA ALA ASN LEU LEU LEU ALA THR VAL          
  10 A  265  GLY GLY PRO ALA GLY LEU THR ALA PHE LEU ARG GLN ILE          
  11 A  265  GLY ASP ASN VAL THR ARG LEU ASP ARG TRP GLU THR GLU          
  12 A  265  LEU ASN GLU ALA LEU PRO GLY ASP ALA ARG ASP THR THR          
  13 A  265  THR PRO ALA SER MET ALA ALA THR LEU ARG LYS LEU LEU          
  14 A  265  THR SER GLN ARG LEU SER ALA ARG SER GLN ARG GLN LEU          
  15 A  265  LEU GLN TRP MET VAL ASP ASP ARG VAL ALA GLY PRO LEU          
  16 A  265  ILE ARG SER VAL LEU PRO ALA GLY TRP PHE ILE ALA ASP          
  17 A  265  LYS THR GLY ALA GLY GLU ARG GLY ALA ARG GLY ILE VAL          
  18 A  265  ALA LEU LEU GLY PRO ASN ASN LYS ALA GLU ARG ILE VAL          
  19 A  265  VAL ILE TYR LEU ARG ASP THR PRO ALA SER MET ALA GLU          
  20 A  265  ARG ASN GLN GLN ILE ALA GLY ILE GLY ALA ALA LEU ILE          
  21 A  265  GLU HIS TRP GLN ARG                                          

>  <HET>
 CZ9  A   1      29                                                       
 MA4  A 400      35                                                       
 MA4  A 401      11                                                       

>  <HETNAM>
     CZ9 N-[(DIHYDROXYBORANYL)METHYL]-NALPHA-[(4-ETHYL-2,3-               
   2 CZ9  DIOXOPIPERAZIN-1-YL)CARBONYL]-D-TYROSINAMIDE                    
     MA4 CYCLOHEXYL-HEXYL-BETA-D-MALTOSIDE                                

>  <FORMUL>
   2  CZ9    C17 H23 B N4 O7                                              
   3  MA4    2(C24 H44 O11)                                               
   5  HOH   *278(H2 O)                                                    

>  <HELIX>
   1   1 GLN A   28  SER A   41  1                                  14    
   2   2 THR A   71  ALA A   86  1                                  16    
   3   3 ARG A   98  LEU A  102  5                                   5    
   4   4 VAL A  108  LEU A  113  5                                   6    
   5   5 VAL A  119  MET A  129  1                                  11    
   6   6 ASP A  131  VAL A  142  1                                  12    
   7   7 GLY A  143  ILE A  155  1                                  13    
   8   8 THR A  167  GLU A  171  5                                   5    
   9   9 THR A  182  SER A  196  1                                  15    
  10  10 SER A  200  ASP A  213  1                                  14    
  11  11 ALA A  217  LEU A  225  1                                   9    
  12  12 SER A  271  HIS A  289  1                                  19    

>  <SHEET>
   1   A 5 THR A  56  TRP A  60  0                                        
   2   A 5 ARG A  43  ASP A  50 -1  N  GLU A  48   O  LEU A  57           
   3   A 5 ARG A 259  ARG A 266 -1  O  ILE A 260   N  MET A  49           
   4   A 5 ARG A 244  GLY A 251 -1  N  ARG A 244   O  LEU A 265           
   5   A 5 PHE A 230  ALA A 237 -1  N  PHE A 230   O  GLY A 251           
   1   B 2 PHE A  66  PRO A  67  0                                        
   2   B 2 THR A 180  THR A 181 -1  O  THR A 181   N  PHE A  66           
   1   C 2 LYS A  94  ILE A  95  0                                        
   2   C 2 MET A 117  THR A 118 -1  O  MET A 117   N  ILE A  95           

>  <SSBOND>
   1 CYS A   77    CYS A  123                          1555   1555  2.07  

>  <LINK>
       OG  SER A  70                 BAY CZ9 A   1     1555   1555  1.50  

>  <CISPEP>
   1 GLU A  166    THR A  167          0         3.81                     

>  <SITE>
   1 AC1 13 MET A  69  SER A  70  TYR A 105  ASN A 132                    
   2 AC1 13 GLU A 166  THR A 167  ASN A 170  GLY A 236                    
   3 AC1 13 ALA A 237  GLY A 238  GLU A 240  GLN A 277                    
   4 AC1 13 HOH A 345                                                     
   1 AC2 17 HOH A   7  ARG A  93  HIS A  96  VAL A 224                    
   2 AC2 17 PRO A 226  ALA A 248  ILE A 263  ILE A 279                    
   3 AC2 17 ALA A 280  ALA A 284  GLU A 288  HOH A 302                    
   4 AC2 17 HOH A 412  HOH A 415  HOH A 453  HOH A 472                    
   5 AC2 17 HOH A 513                                                     
   1 AC3  3 ARG A 244  ASN A 276  ILE A 279                               

>  <ORIGX1>
      1.000000  0.000000  0.000000        0.00000                         

>  <ORIGX2>
      0.000000  1.000000  0.000000        0.00000                         

>  <ORIGX3>
      0.000000  0.000000  1.000000        0.00000                         

>  <SCALE1>
      0.020120  0.000000  0.000000        0.00000                         

>  <SCALE2>
      0.000000  0.018025  0.000000        0.00000                         

>  <SCALE3>
      0.000000  0.000000  0.012025        0.00000                         

>  <MASTER>
      285    0    3   12    9    0   10    6 2377    1   78   21          

$$$$
