start_structures/Ligand_Substrate/Ligand_Complex_Stripped/DGF_6PSG.pdb
 OpenBabel08222315213D

 25 26  0  0  1  0  0  0  0  0999 V2000
   15.7470  -12.8770   44.5700 N   0  0  0  0  0  0  0  0  0  0  0  0
   16.9390  -12.4090   43.8540 C   0  0  2  0  0  0  0  0  0  0  0  0
   17.3100  -10.9590   44.1570 C   0  0  0  0  0  0  0  0  0  0  0  0
   18.4250  -10.5530   43.8120 O   0  0  0  0  0  0  0  0  0  0  0  0
   16.7620  -12.5560   42.3340 C   0  0  0  0  0  0  0  0  0  0  0  0
   16.6390  -13.9080   41.9180 O   0  0  0  0  0  0  0  0  0  0  0  0
   13.2290  -15.7510   35.0620 C   0  0  0  0  0  0  0  0  0  0  0  0
   12.5330  -17.0640   34.7490 C   0  0  0  0  0  0  0  0  0  0  0  0
   12.0560  -17.5820   36.0990 C   0  0  0  0  0  0  0  0  0  0  0  0
   12.8030  -16.8690   37.0950 O   0  0  0  0  0  0  0  0  0  0  0  0
   13.2160  -15.6040   36.5820 C   0  0  1  0  0  0  0  0  0  0  0  0
   14.5790  -15.1920   37.1280 C   0  0  2  0  0  0  0  0  0  0  0  0
   15.2780  -16.4050   38.2880 S   0  0  0  0  0  0  0  0  0  0  0  0
   14.6260  -13.9330   37.9570 C   0  0  0  0  0  0  0  0  0  0  0  0
   13.9360  -12.6190   37.6560 C   0  0  0  0  0  0  0  0  0  0  0  0
   13.1990  -12.4980   36.6540 O   0  0  0  0  0  0  0  0  0  0  0  0
   14.1640  -11.6710   38.4380 O   0  5  0  0  0  0  0  0  0  0  0  0
   15.3760  -13.9670   39.0020 N   0  0  0  0  0  0  0  0  0  0  0  0
   15.8750  -15.2450   39.4730 C   0  0  1  0  0  0  0  0  0  0  0  0
   15.1530  -15.4230   40.8030 C   0  0  1  0  0  0  0  0  0  0  0  0
   15.7760  -16.5950   41.5350 C   0  0  1  0  0  0  0  0  0  0  0  0
   15.3560  -16.6440   42.9990 C   0  0  0  0  0  0  0  0  0  0  0  0
   15.3700  -17.7910   40.8720 O   0  0  0  0  0  0  0  0  0  0  0  0
   15.3190  -14.1660   41.6190 C   0  0  0  0  0  0  0  0  0  0  0  0
   14.4590  -13.7470   42.3830 O   0  0  0  0  0  0  0  0  0  0  0  0
  2  3  1  0  0  0  0
  2  1  1  1  0  0  0
  4  3  2  0  0  0  0
  5  2  1  0  0  0  0
  6 24  1  0  0  0  0
  6  5  1  0  0  0  0
  7  8  1  0  0  0  0
  8  9  1  0  0  0  0
  9 10  1  0  0  0  0
 10 11  1  0  0  0  0
 11  7  1  6  0  0  0
 11 12  1  0  0  0  0
 12 13  1  1  0  0  0
 12 14  1  0  0  0  0
 13 19  1  0  0  0  0
 14 15  1  0  0  0  0
 14 18  2  0  0  0  0
 15 16  2  0  0  0  0
 15 17  1  0  0  0  0
 18 19  1  0  0  0  0
 19 20  1  1  0  0  0
 20 21  1  0  0  0  0
 20 24  1  1  0  0  0
 21 22  1  1  0  0  0
 21 23  1  0  0  0  0
 24 25  2  0  0  0  0
M  CHG  1  17  -1
M  END
>  <HEADER>
    HYDROLASE                               12-JUL-19   6PSG              

>  <TITLE>
    CRYSTAL STRUCTURE OF CLASS D BETA-LACTAMASE OXA-48 WITH FAROPENEM     

>  <COMPND>
    MOL_ID: 1;                                                            
   2 MOLECULE: CLASS D CARBAPENEMASE OXA-48;                              
   3 CHAIN: A, B, C, D;                                                   
   4 EC: 3.5.2.6;                                                         
   5 ENGINEERED: YES                                                      

>  <SOURCE>
    MOL_ID: 1;                                                            
   2 ORGANISM_SCIENTIFIC: KLEBSIELLA PNEUMONIAE;                          
   3 ORGANISM_TAXID: 573;                                                 
   4 GENE: BLAOXA;                                                        
   5 EXPRESSION_SYSTEM: ESCHERICHIA COLI BL21(DE3);                       
   6 EXPRESSION_SYSTEM_TAXID: 469008                                      

>  <KEYWDS>
    CARBAPENEMASE, CARBAPENEM, SUBSTRATE, HYDROLYZED PRODUCT, HYDROLASE   

>  <EXPDTA>
    X-RAY DIFFRACTION                                                     

>  <AUTHOR>
    A.AKHTAR,Y.CHEN                                                       

>  <REVDAT>
   2   05-AUG-20 6PSG    1       JRNL                                     
   1   22-JAN-20 6PSG    0                                                

>  <JRNL>
      AUTH   A.AKHTAR,O.A.PEMBERTON,Y.CHEN                                
      TITL   STRUCTURAL BASIS FOR SUBSTRATE SPECIFICITY AND CARBAPENEMASE 
      TITL 2 ACTIVITY OF OXA-48 CLASS D BETA-LACTAMASE.                   
      REF    ACS INFECT DIS.               V.   6   261 2020              
      REFN                   ESSN 2373-8227                               
      PMID   31872762                                                     
      DOI    10.1021/ACSINFECDIS.9B00304                                  

>  <REMARK>
   2                                                                      
   2 RESOLUTION.    2.13 ANGSTROMS.                                       
   3                                                                      
   3 REFINEMENT.                                                          
   3   PROGRAM     : PHENIX 1.16_3549                                     
   3   AUTHORS     : PAUL ADAMS,PAVEL AFONINE,VINCENT CHEN,IAN            
   3               : DAVIS,KRESHNA GOPAL,RALF GROSSE-KUNSTLEVE,           
   3               : LI-WEI HUNG,ROBERT IMMORMINO,TOM IOERGER,            
   3               : AIRLIE MCCOY,ERIK MCKEE,NIGEL MORIARTY,              
   3               : REETAL PAI,RANDY READ,JANE RICHARDSON,               
   3               : DAVID RICHARDSON,TOD ROMO,JIM SACCHETTINI,           
   3               : NICHOLAS SAUTER,JACOB SMITH,LAURENT                  
   3               : STORONI,TOM TERWILLIGER,PETER ZWART                  
   3                                                                      
   3    REFINEMENT TARGET : NULL                                          
   3                                                                      
   3  DATA USED IN REFINEMENT.                                            
   3   RESOLUTION RANGE HIGH (ANGSTROMS) : 2.13                           
   3   RESOLUTION RANGE LOW  (ANGSTROMS) : 35.12                          
   3   MIN(FOBS/SIGMA_FOBS)              : 1.370                          
   3   COMPLETENESS FOR RANGE        (%) : 98.0                           
   3   NUMBER OF REFLECTIONS             : 64674                          
   3                                                                      
   3  FIT TO DATA USED IN REFINEMENT.                                     
   3   R VALUE     (WORKING + TEST SET) : 0.173                           
   3   R VALUE            (WORKING SET) : 0.171                           
   3   FREE R VALUE                     : 0.220                           
   3   FREE R VALUE TEST SET SIZE   (%) : 3.080                           
   3   FREE R VALUE TEST SET COUNT      : 1994                            
   3                                                                      
   3  FIT TO DATA USED IN REFINEMENT (IN BINS).                           
   3   BIN  RESOLUTION RANGE  COMPL.    NWORK NFREE   RWORK  RFREE        
   3     1 35.1100 -  5.1081    1.00     4649   144  0.1473 0.1737        
   3     2  5.1081 -  4.0564    0.99     4530   144  0.1341 0.1550        
   3     3  4.0564 -  3.5442    0.99     4524   145  0.1518 0.1935        
   3     4  3.5442 -  3.2204    0.99     4511   146  0.1689 0.2446        
   3     5  3.2204 -  2.9897    0.99     4521   135  0.1889 0.2404        
   3     6  2.9897 -  2.8135    0.99     4522   155  0.1900 0.2382        
   3     7  2.8135 -  2.6726    1.00     4551   144  0.1844 0.2557        
   3     8  2.6726 -  2.5563    1.00     4552   136  0.1941 0.3084        
   3     9  2.5563 -  2.4580    1.00     4550   149  0.2008 0.2470        
   3    10  2.4580 -  2.3732    1.00     4518   149  0.2051 0.2863        
   3    11  2.3732 -  2.2990    1.00     4553   140  0.2112 0.2952        
   3    12  2.2990 -  2.2333    1.00     4489   153  0.2125 0.2435        
   3    13  2.2333 -  2.1745    0.97     4448   132  0.2271 0.2998        
   3    14  2.1745 -  2.1300    0.83     3762   122  0.2494 0.3297        
   3                                                                      
   3  BULK SOLVENT MODELLING.                                             
   3   METHOD USED        : NULL                                          
   3   SOLVENT RADIUS     : 1.11                                          
   3   SHRINKAGE RADIUS   : 0.90                                          
   3   K_SOL              : NULL                                          
   3   B_SOL              : NULL                                          
   3                                                                      
   3  ERROR ESTIMATES.                                                    
   3   COORDINATE ERROR (MAXIMUM-LIKELIHOOD BASED)     : 0.260            
   3   PHASE ERROR (DEGREES, MAXIMUM-LIKELIHOOD BASED) : 26.450           
   3                                                                      
   3  B VALUES.                                                           
   3   FROM WILSON PLOT           (A**2) : NULL                           
   3   MEAN B VALUE      (OVERALL, A**2) : 39.20                          
   3   OVERALL ANISOTROPIC B VALUE.                                       
   3    B11 (A**2) : NULL                                                 
   3    B22 (A**2) : NULL                                                 
   3    B33 (A**2) : NULL                                                 
   3    B12 (A**2) : NULL                                                 
   3    B13 (A**2) : NULL                                                 
   3    B23 (A**2) : NULL                                                 
   3                                                                      
   3  TWINNING INFORMATION.                                               
   3   FRACTION: NULL                                                     
   3   OPERATOR: NULL                                                     
   3                                                                      
   3  DEVIATIONS FROM IDEAL VALUES.                                       
   3                 RMSD          COUNT                                  
   3   BOND      :   NULL           NULL                                  
   3   ANGLE     :   NULL           NULL                                  
   3   CHIRALITY :   NULL           NULL                                  
   3   PLANARITY :   NULL           NULL                                  
   3   DIHEDRAL  :   NULL           NULL                                  
   3                                                                      
   3  TLS DETAILS                                                         
   3   NUMBER OF TLS GROUPS  : NULL                                       
   3                                                                      
   3  NCS DETAILS                                                         
   3   NUMBER OF NCS GROUPS : NULL                                        
   3                                                                      
   3  OTHER REFINEMENT REMARKS: NULL                                      
   4                                                                      
   4 6PSG COMPLIES WITH FORMAT V. 3.30, 13-JUL-11                         
 100                                                                      
 100 THIS ENTRY HAS BEEN PROCESSED BY RCSB ON 16-JUL-19.                  
 100 THE DEPOSITION ID IS D_1000242978.                                   
 200                                                                      
 200 EXPERIMENTAL DETAILS                                                 
 200  EXPERIMENT TYPE                : X-RAY DIFFRACTION                  
 200  DATE OF DATA COLLECTION        : 29-JUL-17                          
 200  TEMPERATURE           (KELVIN) : 100                                
 200  PH                             : 4.6                                
 200  NUMBER OF CRYSTALS USED        : 1                                  
 200                                                                      
 200  SYNCHROTRON              (Y/N) : Y                                  
 200  RADIATION SOURCE               : APS                                
 200  BEAMLINE                       : 22-ID                              
 200  X-RAY GENERATOR MODEL          : NULL                               
 200  MONOCHROMATIC OR LAUE    (M/L) : M                                  
 200  WAVELENGTH OR RANGE        (A) : 1.0                                
 200  MONOCHROMATOR                  : NULL                               
 200  OPTICS                         : NULL                               
 200                                                                      
 200  DETECTOR TYPE                  : CCD                                
 200  DETECTOR MANUFACTURER          : MARMOSAIC 300 MM CCD               
 200  INTENSITY-INTEGRATION SOFTWARE : HKL-2000                           
 200  DATA SCALING SOFTWARE          : HKL-2000                           
 200                                                                      
 200  NUMBER OF UNIQUE REFLECTIONS   : 64811                              
 200  RESOLUTION RANGE HIGH      (A) : 2.121                              
 200  RESOLUTION RANGE LOW       (A) : 50.000                             
 200  REJECTION CRITERIA  (SIGMA(I)) : NULL                               
 200                                                                      
 200 OVERALL.                                                             
 200  COMPLETENESS FOR RANGE     (%) : 98.8                               
 200  DATA REDUNDANCY                : 3.500                              
 200  R MERGE                    (I) : 0.07800                            
 200  R SYM                      (I) : NULL                               
 200  <I/SIGMA(I)> FOR THE DATA SET  : 6.5000                             
 200                                                                      
 200 IN THE HIGHEST RESOLUTION SHELL.                                     
 200  HIGHEST RESOLUTION SHELL, RANGE HIGH (A) : 2.13                     
 200  HIGHEST RESOLUTION SHELL, RANGE LOW  (A) : 2.17                     
 200  COMPLETENESS FOR SHELL     (%) : 90.9                               
 200  DATA REDUNDANCY IN SHELL       : 2.70                               
 200  R MERGE FOR SHELL          (I) : 0.36800                            
 200  R SYM FOR SHELL            (I) : NULL                               
 200  <I/SIGMA(I)> FOR SHELL         : NULL                               
 200                                                                      
 200 DIFFRACTION PROTOCOL: SINGLE WAVELENGTH                              
 200 METHOD USED TO DETERMINE THE STRUCTURE: MOLECULAR REPLACEMENT        
 200 SOFTWARE USED: PHASER 2.6.0                                          
 200 STARTING MODEL: 3HBR                                                 
 200                                                                      
 200 REMARK: NULL                                                         
 280                                                                      
 280 CRYSTAL                                                              
 280 SOLVENT CONTENT, VS   (%): 48.84                                     
 280 MATTHEWS COEFFICIENT, VM (ANGSTROMS**3/DA): 2.40                     
 280                                                                      
 280 CRYSTALLIZATION CONDITIONS: 0.2 M AMMONIUM ACETATE, 0.1 M SODIUM     
 280  ACETATE PH 4.6, 30%(W/V) PEG-4000, VAPOR DIFFUSION, HANGING DROP,   
 280  TEMPERATURE 293K                                                    
 290                                                                      
 290 CRYSTALLOGRAPHIC SYMMETRY                                            
 290 SYMMETRY OPERATORS FOR SPACE GROUP: P 1 21 1                         
 290                                                                      
 290      SYMOP   SYMMETRY                                                
 290     NNNMMM   OPERATOR                                                
 290       1555   X,Y,Z                                                   
 290       2555   -X,Y+1/2,-Z                                             
 290                                                                      
 290     WHERE NNN -> OPERATOR NUMBER                                     
 290           MMM -> TRANSLATION VECTOR                                  
 290                                                                      
 290 CRYSTALLOGRAPHIC SYMMETRY TRANSFORMATIONS                            
 290 THE FOLLOWING TRANSFORMATIONS OPERATE ON THE ATOM/HETATM             
 290 RECORDS IN THIS ENTRY TO PRODUCE CRYSTALLOGRAPHICALLY                
 290 RELATED MOLECULES.                                                   
 290   SMTRY1   1  1.000000  0.000000  0.000000        0.00000            
 290   SMTRY2   1  0.000000  1.000000  0.000000        0.00000            
 290   SMTRY3   1  0.000000  0.000000  1.000000        0.00000            
 290   SMTRY1   2 -1.000000  0.000000  0.000000        0.00000            
 290   SMTRY2   2  0.000000  1.000000  0.000000       53.33700            
 290   SMTRY3   2  0.000000  0.000000 -1.000000        0.00000            
 290                                                                      
 290 REMARK: NULL                                                         
 300                                                                      
 300 BIOMOLECULE: 1, 2, 3, 4                                              
 300 SEE REMARK 350 FOR THE AUTHOR PROVIDED AND/OR PROGRAM                
 300 GENERATED ASSEMBLY INFORMATION FOR THE STRUCTURE IN                  
 300 THIS ENTRY. THE REMARK MAY ALSO PROVIDE INFORMATION ON               
 300 BURIED SURFACE AREA.                                                 
 350                                                                      
 350 COORDINATES FOR A COMPLETE MULTIMER REPRESENTING THE KNOWN           
 350 BIOLOGICALLY SIGNIFICANT OLIGOMERIZATION STATE OF THE                
 350 MOLECULE CAN BE GENERATED BY APPLYING BIOMT TRANSFORMATIONS          
 350 GIVEN BELOW.  BOTH NON-CRYSTALLOGRAPHIC AND                          
 350 CRYSTALLOGRAPHIC OPERATIONS ARE GIVEN.                               
 350                                                                      
 350 BIOMOLECULE: 1                                                       
 350 AUTHOR DETERMINED BIOLOGICAL UNIT: MONOMERIC                         
 350 SOFTWARE DETERMINED QUATERNARY STRUCTURE: MONOMERIC                  
 350 SOFTWARE USED: PISA                                                  
 350 APPLY THE FOLLOWING TO CHAINS: A                                     
 350   BIOMT1   1  1.000000  0.000000  0.000000        0.00000            
 350   BIOMT2   1  0.000000  1.000000  0.000000        0.00000            
 350   BIOMT3   1  0.000000  0.000000  1.000000        0.00000            
 350                                                                      
 350 BIOMOLECULE: 2                                                       
 350 AUTHOR DETERMINED BIOLOGICAL UNIT: MONOMERIC                         
 350 SOFTWARE DETERMINED QUATERNARY STRUCTURE: MONOMERIC                  
 350 SOFTWARE USED: PISA                                                  
 350 APPLY THE FOLLOWING TO CHAINS: B                                     
 350   BIOMT1   1  1.000000  0.000000  0.000000        0.00000            
 350   BIOMT2   1  0.000000  1.000000  0.000000        0.00000            
 350   BIOMT3   1  0.000000  0.000000  1.000000        0.00000            
 350                                                                      
 350 BIOMOLECULE: 3                                                       
 350 AUTHOR DETERMINED BIOLOGICAL UNIT: MONOMERIC                         
 350 SOFTWARE DETERMINED QUATERNARY STRUCTURE: MONOMERIC                  
 350 SOFTWARE USED: PISA                                                  
 350 APPLY THE FOLLOWING TO CHAINS: C                                     
 350   BIOMT1   1  1.000000  0.000000  0.000000        0.00000            
 350   BIOMT2   1  0.000000  1.000000  0.000000        0.00000            
 350   BIOMT3   1  0.000000  0.000000  1.000000        0.00000            
 350                                                                      
 350 BIOMOLECULE: 4                                                       
 350 AUTHOR DETERMINED BIOLOGICAL UNIT: MONOMERIC                         
 350 SOFTWARE DETERMINED QUATERNARY STRUCTURE: MONOMERIC                  
 350 SOFTWARE USED: PISA                                                  
 350 APPLY THE FOLLOWING TO CHAINS: D                                     
 350   BIOMT1   1  1.000000  0.000000  0.000000        0.00000            
 350   BIOMT2   1  0.000000  1.000000  0.000000        0.00000            
 350   BIOMT3   1  0.000000  0.000000  1.000000        0.00000            
 465                                                                      
 465 MISSING RESIDUES                                                     
 465 THE FOLLOWING RESIDUES WERE NOT LOCATED IN THE                       
 465 EXPERIMENT. (M=MODEL NUMBER; RES=RESIDUE NAME; C=CHAIN               
 465 IDENTIFIER; SSSEQ=SEQUENCE NUMBER; I=INSERTION CODE.)                
 465                                                                      
 465   M RES C SSSEQI                                                     
 465     MET A     3                                                      
 465     LYS A     4                                                      
 465     HIS A     5                                                      
 465     HIS A     6                                                      
 465     HIS A     7                                                      
 465     HIS A     8                                                      
 465     HIS A     9                                                      
 465     HIS A    10                                                      
 465     MET A    11                                                      
 465     HIS A    12                                                      
 465     HIS A    13                                                      
 465     HIS A    14                                                      
 465     HIS A    15                                                      
 465     HIS A    16                                                      
 465     HIS A    17                                                      
 465     GLU A    18                                                      
 465     MET B     3                                                      
 465     LYS B     4                                                      
 465     HIS B     5                                                      
 465     HIS B     6                                                      
 465     HIS B     7                                                      
 465     HIS B     8                                                      
 465     HIS B     9                                                      
 465     HIS B    10                                                      
 465     MET B    11                                                      
 465     HIS B    12                                                      
 465     HIS B    13                                                      
 465     HIS B    14                                                      
 465     HIS B    15                                                      
 465     HIS B    16                                                      
 465     HIS B    17                                                      
 465     GLU B    18                                                      
 465     ASN B    19                                                      
 465     MET C     3                                                      
 465     LYS C     4                                                      
 465     HIS C     5                                                      
 465     HIS C     6                                                      
 465     HIS C     7                                                      
 465     HIS C     8                                                      
 465     HIS C     9                                                      
 465     HIS C    10                                                      
 465     MET C    11                                                      
 465     HIS C    12                                                      
 465     HIS C    13                                                      
 465     HIS C    14                                                      
 465     HIS C    15                                                      
 465     HIS C    16                                                      
 465     MET D     3                                                      
 465     LYS D     4                                                      
 465     HIS D     5                                                      
 465     HIS D     6                                                      
 465     HIS D     7                                                      
 465     HIS D     8                                                      
 465     HIS D     9                                                      
 465     HIS D    10                                                      
 465     MET D    11                                                      
 465     HIS D    12                                                      
 465     HIS D    13                                                      
 465     HIS D    14                                                      
 465     HIS D    15                                                      
 465     HIS D    16                                                      
 465     HIS D    17                                                      
 465     GLU D    18                                                      
 465     ASN D    19                                                      
 465     LEU D    20                                                      
 465     TYR D    21                                                      
 470                                                                      
 470 MISSING ATOM                                                         
 470 THE FOLLOWING RESIDUES HAVE MISSING ATOMS (M=MODEL NUMBER;           
 470 RES=RESIDUE NAME; C=CHAIN IDENTIFIER; SSEQ=SEQUENCE NUMBER;          
 470 I=INSERTION CODE):                                                   
 470   M RES CSSEQI  ATOMS                                                
 470     LYS A  60    CG   CD   CE   NZ                                   
 470     ASN B 152    CG   OD1  ND2                                       
 470     ASN D 152    CG   OD1  ND2                                       
 500                                                                      
 500 GEOMETRY AND STEREOCHEMISTRY                                         
 500 SUBTOPIC: CLOSE CONTACTS IN SAME ASYMMETRIC UNIT                     
 500                                                                      
 500 THE FOLLOWING ATOMS ARE IN CLOSE CONTACT.                            
 500                                                                      
 500  ATM1  RES C  SSEQI   ATM2  RES C  SSEQI           DISTANCE          
 500   OG   SER B    70     OAF  DGF B   301              2.15            
 500                                                                      
 500 REMARK: NULL                                                         
 500                                                                      
 500 GEOMETRY AND STEREOCHEMISTRY                                         
 500 SUBTOPIC: TORSION ANGLES                                             
 500                                                                      
 500 TORSION ANGLES OUTSIDE THE EXPECTED RAMACHANDRAN REGIONS:            
 500 (M=MODEL NUMBER; RES=RESIDUE NAME; C=CHAIN IDENTIFIER;               
 500 SSEQ=SEQUENCE NUMBER; I=INSERTION CODE).                             
 500                                                                      
 500 STANDARD TABLE:                                                      
 500 FORMAT:(10X,I3,1X,A3,1X,A1,I4,A1,4X,F7.2,3X,F7.2)                    
 500                                                                      
 500 EXPECTED VALUES: GJ KLEYWEGT AND TA JONES (1996). PHI/PSI-           
 500 CHOLOGY: RAMACHANDRAN REVISITED. STRUCTURE 4, 1395 - 1400            
 500                                                                      
 500  M RES CSSEQI        PSI       PHI                                   
 500    ALA A  69     -136.75     49.41                                   
 500    ASN A 106       56.40    -93.68                                   
 500    SER A 155       11.59   -159.45                                   
 500    ASP A 159       24.92   -156.36                                   
 500    ALA B  69     -133.51     49.03                                   
 500    ASN B 106       54.35    -91.65                                   
 500    ASP B 148      118.33   -160.41                                   
 500    ASN B 152     -144.44     70.63                                   
 500    SER B 155        7.11   -152.81                                   
 500    ALA C  69     -131.74     48.64                                   
 500    ASN C 106       57.19    -93.51                                   
 500    SER C 155        7.18   -159.00                                   
 500    ASP C 159       21.50   -153.19                                   
 500    ASN D  58       93.75   -167.47                                   
 500    ALA D  69     -136.18     45.54                                   
 500    ASP D  88     -177.44   -170.99                                   
 500    ASN D 106       56.05    -92.23                                   
 500    ASP D 159       27.15   -143.29                                   
 500                                                                      
 500 REMARK: NULL                                                         
 800                                                                      
 800 SITE                                                                 
 800 SITE_IDENTIFIER: AC1                                                 
 800 EVIDENCE_CODE: SOFTWARE                                              
 800 SITE_DESCRIPTION: binding site for residue CL A 301                  
 800                                                                      
 800 SITE_IDENTIFIER: AC2                                                 
 800 EVIDENCE_CODE: SOFTWARE                                              
 800 SITE_DESCRIPTION: binding site for residue DGF A 302                 
 800                                                                      
 800 SITE_IDENTIFIER: AC3                                                 
 800 EVIDENCE_CODE: SOFTWARE                                              
 800 SITE_DESCRIPTION: binding site for residue CL C 301                  
 800                                                                      
 800 SITE_IDENTIFIER: AC4                                                 
 800 EVIDENCE_CODE: SOFTWARE                                              
 800 SITE_DESCRIPTION: binding site for residue GOL C 303                 
 800                                                                      
 800 SITE_IDENTIFIER: AC5                                                 
 800 EVIDENCE_CODE: SOFTWARE                                              
 800 SITE_DESCRIPTION: binding site for Di-peptide DGF B 301 and SER B    
 800  70                                                                  
 800                                                                      
 800 SITE_IDENTIFIER: AC6                                                 
 800 EVIDENCE_CODE: SOFTWARE                                              
 800 SITE_DESCRIPTION: binding site for Di-peptide DGF C 302 and SER C    
 800  70                                                                  
 800                                                                      
 800 SITE_IDENTIFIER: AC7                                                 
 800 EVIDENCE_CODE: SOFTWARE                                              
 800 SITE_DESCRIPTION: binding site for Di-peptide DGF D 301 and SER D    
 800  70                                                                  

>  <DBREF1>
 6PSG A   25   265  UNP                  A0A482LRD5_KLEPN                 
 6PSG B   25   265  UNP                  A0A482LRD5_KLEPN                 
 6PSG C   25   265  UNP                  A0A482LRD5_KLEPN                 
 6PSG D   25   265  UNP                  A0A482LRD5_KLEPN                 

>  <DBREF2>
 6PSG A     A0A482LRD5                         15         255             
 6PSG B     A0A482LRD5                         15         255             
 6PSG C     A0A482LRD5                         15         255             
 6PSG D     A0A482LRD5                         15         255             

>  <SEQADV>
 6PSG MET A    3  UNP  A0A482LRD           INITIATING METHIONINE          
 6PSG LYS A    4  UNP  A0A482LRD           EXPRESSION TAG                 
 6PSG HIS A    5  UNP  A0A482LRD           EXPRESSION TAG                 
 6PSG HIS A    6  UNP  A0A482LRD           EXPRESSION TAG                 
 6PSG HIS A    7  UNP  A0A482LRD           EXPRESSION TAG                 
 6PSG HIS A    8  UNP  A0A482LRD           EXPRESSION TAG                 
 6PSG HIS A    9  UNP  A0A482LRD           EXPRESSION TAG                 
 6PSG HIS A   10  UNP  A0A482LRD           EXPRESSION TAG                 
 6PSG MET A   11  UNP  A0A482LRD           EXPRESSION TAG                 
 6PSG HIS A   12  UNP  A0A482LRD           EXPRESSION TAG                 
 6PSG HIS A   13  UNP  A0A482LRD           EXPRESSION TAG                 
 6PSG HIS A   14  UNP  A0A482LRD           EXPRESSION TAG                 
 6PSG HIS A   15  UNP  A0A482LRD           EXPRESSION TAG                 
 6PSG HIS A   16  UNP  A0A482LRD           EXPRESSION TAG                 
 6PSG HIS A   17  UNP  A0A482LRD           EXPRESSION TAG                 
 6PSG GLU A   18  UNP  A0A482LRD           EXPRESSION TAG                 
 6PSG ASN A   19  UNP  A0A482LRD           EXPRESSION TAG                 
 6PSG LEU A   20  UNP  A0A482LRD           EXPRESSION TAG                 
 6PSG TYR A   21  UNP  A0A482LRD           EXPRESSION TAG                 
 6PSG PHE A   22  UNP  A0A482LRD           EXPRESSION TAG                 
 6PSG GLN A   23  UNP  A0A482LRD           EXPRESSION TAG                 
 6PSG GLY A   24  UNP  A0A482LRD           EXPRESSION TAG                 
 6PSG MET B    3  UNP  A0A482LRD           INITIATING METHIONINE          
 6PSG LYS B    4  UNP  A0A482LRD           EXPRESSION TAG                 
 6PSG HIS B    5  UNP  A0A482LRD           EXPRESSION TAG                 
 6PSG HIS B    6  UNP  A0A482LRD           EXPRESSION TAG                 
 6PSG HIS B    7  UNP  A0A482LRD           EXPRESSION TAG                 
 6PSG HIS B    8  UNP  A0A482LRD           EXPRESSION TAG                 
 6PSG HIS B    9  UNP  A0A482LRD           EXPRESSION TAG                 
 6PSG HIS B   10  UNP  A0A482LRD           EXPRESSION TAG                 
 6PSG MET B   11  UNP  A0A482LRD           EXPRESSION TAG                 
 6PSG HIS B   12  UNP  A0A482LRD           EXPRESSION TAG                 
 6PSG HIS B   13  UNP  A0A482LRD           EXPRESSION TAG                 
 6PSG HIS B   14  UNP  A0A482LRD           EXPRESSION TAG                 
 6PSG HIS B   15  UNP  A0A482LRD           EXPRESSION TAG                 
 6PSG HIS B   16  UNP  A0A482LRD           EXPRESSION TAG                 
 6PSG HIS B   17  UNP  A0A482LRD           EXPRESSION TAG                 
 6PSG GLU B   18  UNP  A0A482LRD           EXPRESSION TAG                 
 6PSG ASN B   19  UNP  A0A482LRD           EXPRESSION TAG                 
 6PSG LEU B   20  UNP  A0A482LRD           EXPRESSION TAG                 
 6PSG TYR B   21  UNP  A0A482LRD           EXPRESSION TAG                 
 6PSG PHE B   22  UNP  A0A482LRD           EXPRESSION TAG                 
 6PSG GLN B   23  UNP  A0A482LRD           EXPRESSION TAG                 
 6PSG GLY B   24  UNP  A0A482LRD           EXPRESSION TAG                 
 6PSG MET C    3  UNP  A0A482LRD           INITIATING METHIONINE          
 6PSG LYS C    4  UNP  A0A482LRD           EXPRESSION TAG                 
 6PSG HIS C    5  UNP  A0A482LRD           EXPRESSION TAG                 
 6PSG HIS C    6  UNP  A0A482LRD           EXPRESSION TAG                 
 6PSG HIS C    7  UNP  A0A482LRD           EXPRESSION TAG                 
 6PSG HIS C    8  UNP  A0A482LRD           EXPRESSION TAG                 
 6PSG HIS C    9  UNP  A0A482LRD           EXPRESSION TAG                 
 6PSG HIS C   10  UNP  A0A482LRD           EXPRESSION TAG                 
 6PSG MET C   11  UNP  A0A482LRD           EXPRESSION TAG                 
 6PSG HIS C   12  UNP  A0A482LRD           EXPRESSION TAG                 
 6PSG HIS C   13  UNP  A0A482LRD           EXPRESSION TAG                 
 6PSG HIS C   14  UNP  A0A482LRD           EXPRESSION TAG                 
 6PSG HIS C   15  UNP  A0A482LRD           EXPRESSION TAG                 
 6PSG HIS C   16  UNP  A0A482LRD           EXPRESSION TAG                 
 6PSG HIS C   17  UNP  A0A482LRD           EXPRESSION TAG                 
 6PSG GLU C   18  UNP  A0A482LRD           EXPRESSION TAG                 
 6PSG ASN C   19  UNP  A0A482LRD           EXPRESSION TAG                 
 6PSG LEU C   20  UNP  A0A482LRD           EXPRESSION TAG                 
 6PSG TYR C   21  UNP  A0A482LRD           EXPRESSION TAG                 
 6PSG PHE C   22  UNP  A0A482LRD           EXPRESSION TAG                 
 6PSG GLN C   23  UNP  A0A482LRD           EXPRESSION TAG                 
 6PSG GLY C   24  UNP  A0A482LRD           EXPRESSION TAG                 
 6PSG MET D    3  UNP  A0A482LRD           INITIATING METHIONINE          
 6PSG LYS D    4  UNP  A0A482LRD           EXPRESSION TAG                 
 6PSG HIS D    5  UNP  A0A482LRD           EXPRESSION TAG                 
 6PSG HIS D    6  UNP  A0A482LRD           EXPRESSION TAG                 
 6PSG HIS D    7  UNP  A0A482LRD           EXPRESSION TAG                 
 6PSG HIS D    8  UNP  A0A482LRD           EXPRESSION TAG                 
 6PSG HIS D    9  UNP  A0A482LRD           EXPRESSION TAG                 
 6PSG HIS D   10  UNP  A0A482LRD           EXPRESSION TAG                 
 6PSG MET D   11  UNP  A0A482LRD           EXPRESSION TAG                 
 6PSG HIS D   12  UNP  A0A482LRD           EXPRESSION TAG                 
 6PSG HIS D   13  UNP  A0A482LRD           EXPRESSION TAG                 
 6PSG HIS D   14  UNP  A0A482LRD           EXPRESSION TAG                 
 6PSG HIS D   15  UNP  A0A482LRD           EXPRESSION TAG                 
 6PSG HIS D   16  UNP  A0A482LRD           EXPRESSION TAG                 
 6PSG HIS D   17  UNP  A0A482LRD           EXPRESSION TAG                 
 6PSG GLU D   18  UNP  A0A482LRD           EXPRESSION TAG                 
 6PSG ASN D   19  UNP  A0A482LRD           EXPRESSION TAG                 
 6PSG LEU D   20  UNP  A0A482LRD           EXPRESSION TAG                 
 6PSG TYR D   21  UNP  A0A482LRD           EXPRESSION TAG                 
 6PSG PHE D   22  UNP  A0A482LRD           EXPRESSION TAG                 
 6PSG GLN D   23  UNP  A0A482LRD           EXPRESSION TAG                 
 6PSG GLY D   24  UNP  A0A482LRD           EXPRESSION TAG                 

>  <SEQRES>
   1 A  263  MET LYS HIS HIS HIS HIS HIS HIS MET HIS HIS HIS HIS          
   2 A  263  HIS HIS GLU ASN LEU TYR PHE GLN GLY TRP GLN GLU ASN          
   3 A  263  LYS SER TRP ASN ALA HIS PHE THR GLU HIS LYS SER GLN          
   4 A  263  GLY VAL VAL VAL LEU TRP ASN GLU ASN LYS GLN GLN GLY          
   5 A  263  PHE THR ASN ASN LEU LYS ARG ALA ASN GLN ALA PHE LEU          
   6 A  263  PRO ALA SER THR PHE LYS ILE PRO ASN SER LEU ILE ALA          
   7 A  263  LEU ASP LEU GLY VAL VAL LYS ASP GLU HIS GLN VAL PHE          
   8 A  263  LYS TRP ASP GLY GLN THR ARG ASP ILE ALA THR TRP ASN          
   9 A  263  ARG ASP HIS ASN LEU ILE THR ALA MET LYS TYR SER VAL          
  10 A  263  VAL PRO VAL TYR GLN GLU PHE ALA ARG GLN ILE GLY GLU          
  11 A  263  ALA ARG MET SER LYS MET LEU HIS ALA PHE ASP TYR GLY          
  12 A  263  ASN GLU ASP ILE SER GLY ASN VAL ASP SER PHE TRP LEU          
  13 A  263  ASP GLY GLY ILE ARG ILE SER ALA THR GLU GLN ILE SER          
  14 A  263  PHE LEU ARG LYS LEU TYR HIS ASN LYS LEU HIS VAL SER          
  15 A  263  GLU ARG SER GLN ARG ILE VAL LYS GLN ALA MET LEU THR          
  16 A  263  GLU ALA ASN GLY ASP TYR ILE ILE ARG ALA LYS THR GLY          
  17 A  263  TYR SER THR ARG ILE GLU PRO LYS ILE GLY TRP TRP VAL          
  18 A  263  GLY TRP VAL GLU LEU ASP ASP ASN VAL TRP PHE PHE ALA          
  19 A  263  MET ASN MET ASP MET PRO THR SER ASP GLY LEU GLY LEU          
  20 A  263  ARG GLN ALA ILE THR LYS GLU VAL LEU LYS GLN GLU LYS          
  21 A  263  ILE ILE PRO                                                  
   1 B  263  MET LYS HIS HIS HIS HIS HIS HIS MET HIS HIS HIS HIS          
   2 B  263  HIS HIS GLU ASN LEU TYR PHE GLN GLY TRP GLN GLU ASN          
   3 B  263  LYS SER TRP ASN ALA HIS PHE THR GLU HIS LYS SER GLN          
   4 B  263  GLY VAL VAL VAL LEU TRP ASN GLU ASN LYS GLN GLN GLY          
   5 B  263  PHE THR ASN ASN LEU LYS ARG ALA ASN GLN ALA PHE LEU          
   6 B  263  PRO ALA SER THR PHE LYS ILE PRO ASN SER LEU ILE ALA          
   7 B  263  LEU ASP LEU GLY VAL VAL LYS ASP GLU HIS GLN VAL PHE          
   8 B  263  LYS TRP ASP GLY GLN THR ARG ASP ILE ALA THR TRP ASN          
   9 B  263  ARG ASP HIS ASN LEU ILE THR ALA MET LYS TYR SER VAL          
  10 B  263  VAL PRO VAL TYR GLN GLU PHE ALA ARG GLN ILE GLY GLU          
  11 B  263  ALA ARG MET SER LYS MET LEU HIS ALA PHE ASP TYR GLY          
  12 B  263  ASN GLU ASP ILE SER GLY ASN VAL ASP SER PHE TRP LEU          
  13 B  263  ASP GLY GLY ILE ARG ILE SER ALA THR GLU GLN ILE SER          
  14 B  263  PHE LEU ARG LYS LEU TYR HIS ASN LYS LEU HIS VAL SER          
  15 B  263  GLU ARG SER GLN ARG ILE VAL LYS GLN ALA MET LEU THR          
  16 B  263  GLU ALA ASN GLY ASP TYR ILE ILE ARG ALA LYS THR GLY          
  17 B  263  TYR SER THR ARG ILE GLU PRO LYS ILE GLY TRP TRP VAL          
  18 B  263  GLY TRP VAL GLU LEU ASP ASP ASN VAL TRP PHE PHE ALA          
  19 B  263  MET ASN MET ASP MET PRO THR SER ASP GLY LEU GLY LEU          
  20 B  263  ARG GLN ALA ILE THR LYS GLU VAL LEU LYS GLN GLU LYS          
  21 B  263  ILE ILE PRO                                                  
   1 C  263  MET LYS HIS HIS HIS HIS HIS HIS MET HIS HIS HIS HIS          
   2 C  263  HIS HIS GLU ASN LEU TYR PHE GLN GLY TRP GLN GLU ASN          
   3 C  263  LYS SER TRP ASN ALA HIS PHE THR GLU HIS LYS SER GLN          
   4 C  263  GLY VAL VAL VAL LEU TRP ASN GLU ASN LYS GLN GLN GLY          
   5 C  263  PHE THR ASN ASN LEU LYS ARG ALA ASN GLN ALA PHE LEU          
   6 C  263  PRO ALA SER THR PHE LYS ILE PRO ASN SER LEU ILE ALA          
   7 C  263  LEU ASP LEU GLY VAL VAL LYS ASP GLU HIS GLN VAL PHE          
   8 C  263  LYS TRP ASP GLY GLN THR ARG ASP ILE ALA THR TRP ASN          
   9 C  263  ARG ASP HIS ASN LEU ILE THR ALA MET LYS TYR SER VAL          
  10 C  263  VAL PRO VAL TYR GLN GLU PHE ALA ARG GLN ILE GLY GLU          
  11 C  263  ALA ARG MET SER LYS MET LEU HIS ALA PHE ASP TYR GLY          
  12 C  263  ASN GLU ASP ILE SER GLY ASN VAL ASP SER PHE TRP LEU          
  13 C  263  ASP GLY GLY ILE ARG ILE SER ALA THR GLU GLN ILE SER          
  14 C  263  PHE LEU ARG LYS LEU TYR HIS ASN LYS LEU HIS VAL SER          
  15 C  263  GLU ARG SER GLN ARG ILE VAL LYS GLN ALA MET LEU THR          
  16 C  263  GLU ALA ASN GLY ASP TYR ILE ILE ARG ALA LYS THR GLY          
  17 C  263  TYR SER THR ARG ILE GLU PRO LYS ILE GLY TRP TRP VAL          
  18 C  263  GLY TRP VAL GLU LEU ASP ASP ASN VAL TRP PHE PHE ALA          
  19 C  263  MET ASN MET ASP MET PRO THR SER ASP GLY LEU GLY LEU          
  20 C  263  ARG GLN ALA ILE THR LYS GLU VAL LEU LYS GLN GLU LYS          
  21 C  263  ILE ILE PRO                                                  
   1 D  263  MET LYS HIS HIS HIS HIS HIS HIS MET HIS HIS HIS HIS          
   2 D  263  HIS HIS GLU ASN LEU TYR PHE GLN GLY TRP GLN GLU ASN          
   3 D  263  LYS SER TRP ASN ALA HIS PHE THR GLU HIS LYS SER GLN          
   4 D  263  GLY VAL VAL VAL LEU TRP ASN GLU ASN LYS GLN GLN GLY          
   5 D  263  PHE THR ASN ASN LEU LYS ARG ALA ASN GLN ALA PHE LEU          
   6 D  263  PRO ALA SER THR PHE LYS ILE PRO ASN SER LEU ILE ALA          
   7 D  263  LEU ASP LEU GLY VAL VAL LYS ASP GLU HIS GLN VAL PHE          
   8 D  263  LYS TRP ASP GLY GLN THR ARG ASP ILE ALA THR TRP ASN          
   9 D  263  ARG ASP HIS ASN LEU ILE THR ALA MET LYS TYR SER VAL          
  10 D  263  VAL PRO VAL TYR GLN GLU PHE ALA ARG GLN ILE GLY GLU          
  11 D  263  ALA ARG MET SER LYS MET LEU HIS ALA PHE ASP TYR GLY          
  12 D  263  ASN GLU ASP ILE SER GLY ASN VAL ASP SER PHE TRP LEU          
  13 D  263  ASP GLY GLY ILE ARG ILE SER ALA THR GLU GLN ILE SER          
  14 D  263  PHE LEU ARG LYS LEU TYR HIS ASN LYS LEU HIS VAL SER          
  15 D  263  GLU ARG SER GLN ARG ILE VAL LYS GLN ALA MET LEU THR          
  16 D  263  GLU ALA ASN GLY ASP TYR ILE ILE ARG ALA LYS THR GLY          
  17 D  263  TYR SER THR ARG ILE GLU PRO LYS ILE GLY TRP TRP VAL          
  18 D  263  GLY TRP VAL GLU LEU ASP ASP ASN VAL TRP PHE PHE ALA          
  19 D  263  MET ASN MET ASP MET PRO THR SER ASP GLY LEU GLY LEU          
  20 D  263  ARG GLN ALA ILE THR LYS GLU VAL LEU LYS GLN GLU LYS          
  21 D  263  ILE ILE PRO                                                  

>  <HET>
  CL  A 301       1                                                       
 DGF  A 302      19                                                       
 DGF  B 301      19                                                       
  CL  C 301       1                                                       
 DGF  C 302      19                                                       
 GOL  C 303       6                                                       
 DGF  D 301      19                                                       

>  <HETNAM>
      CL CHLORIDE ION                                                     
     DGF (2R,5R)-2-[(2S,3R)-3-HYDROXY-1-OXOBUTAN-2-YL]-5-[(2R)-           
   2 DGF  TETRAHYDROFURAN-2-YL]-2,5-DIHYDRO-1,3-THIAZOLE-4-               
   3 DGF  CARBOXYLIC ACID                                                 
     GOL GLYCEROL                                                         

>  <HETSYN>
     DGF FAROPENEM PRODUCT, BOUND FORM                                    
     GOL GLYCERIN; PROPANE-1,2,3-TRIOL                                    

>  <FORMUL>
   5   CL    2(CL 1-)                                                     
   6  DGF    4(C12 H17 N O5 S)                                            
  10  GOL    C3 H8 O3                                                     
  12  HOH   *342(H2 O)                                                    

>  <HELIX>
   1 AA1 TRP A   31  GLU A   37  1                                   7    
   2 AA2 ASN A   58  GLN A   64  1                                   7    
   3 AA3 PRO A   68  THR A   71  5                                   4    
   4 AA4 PHE A   72  LEU A   83  1                                  12    
   5 AA5 ILE A  102  ASN A  106  5                                   5    
   6 AA6 ASN A  110  TYR A  117  1                                   8    
   7 AA7 VAL A  119  GLY A  131  1                                  13    
   8 AA8 GLY A  131  ASP A  143  1                                  13    
   9 AA9 SER A  155  GLY A  160  1                                   6    
  10 AB1 ALA A  166  HIS A  178  1                                  13    
  11 AB2 SER A  184  MET A  195  1                                  12    
  12 AB3 THR A  243  LEU A  247  5                                   5    
  13 AB4 GLY A  248  GLU A  261  1                                  14    
  14 AB5 TRP B   31  GLU B   37  1                                   7    
  15 AB6 ASN B   58  ASN B   63  1                                   6    
  16 AB7 PRO B   68  THR B   71  5                                   4    
  17 AB8 PHE B   72  LEU B   83  1                                  12    
  18 AB9 ILE B  102  ASN B  106  5                                   5    
  19 AC1 ASN B  110  TYR B  117  1                                   8    
  20 AC2 VAL B  119  GLY B  131  1                                  13    
  21 AC3 GLY B  131  PHE B  142  1                                  12    
  22 AC4 SER B  155  GLY B  160  1                                   6    
  23 AC5 ALA B  166  HIS B  178  1                                  13    
  24 AC6 SER B  184  MET B  195  1                                  12    
  25 AC7 THR B  243  LEU B  247  5                                   5    
  26 AC8 GLY B  248  GLU B  261  1                                  14    
  27 AC9 TRP C   31  HIS C   38  1                                   8    
  28 AD1 ASN C   58  GLN C   64  1                                   7    
  29 AD2 PRO C   68  THR C   71  5                                   4    
  30 AD3 PHE C   72  LEU C   83  1                                  12    
  31 AD4 ILE C  102  ASN C  106  5                                   5    
  32 AD5 ASN C  110  TYR C  117  1                                   8    
  33 AD6 VAL C  119  GLY C  131  1                                  13    
  34 AD7 GLY C  131  ASP C  143  1                                  13    
  35 AD8 SER C  155  GLY C  160  1                                   6    
  36 AD9 ALA C  166  HIS C  178  1                                  13    
  37 AE1 SER C  184  MET C  195  1                                  12    
  38 AE2 THR C  243  LEU C  247  5                                   5    
  39 AE3 GLY C  248  GLU C  261  1                                  14    
  40 AE4 TRP D   31  GLU D   37  1                                   7    
  41 AE5 ASN D   58  ASN D   63  1                                   6    
  42 AE6 PRO D   68  THR D   71  5                                   4    
  43 AE7 PHE D   72  LEU D   83  1                                  12    
  44 AE8 ILE D  102  ASN D  106  5                                   5    
  45 AE9 ASN D  110  TYR D  117  1                                   8    
  46 AF1 VAL D  119  GLY D  131  1                                  13    
  47 AF2 GLY D  131  PHE D  142  1                                  12    
  48 AF3 SER D  155  GLY D  160  1                                   6    
  49 AF4 SER D  165  HIS D  178  1                                  14    
  50 AF5 SER D  184  MET D  195  1                                  12    
  51 AF6 THR D  243  LEU D  247  5                                   5    
  52 AF7 GLY D  248  GLU D  261  1                                  14    

>  <SHEET>
   1 AA1 7 TRP A  25  GLU A  27  0                                        
   2 AA1 7 GLN A  53  THR A  56  1  O  GLY A  54   N  GLN A  26           
   3 AA1 7 GLY A  42  ASN A  48 -1  N  ASN A  48   O  GLN A  53           
   4 AA1 7 ASN A 231  ASP A 240 -1  O  ASN A 238   N  VAL A  43           
   5 AA1 7 ILE A 219  LEU A 228 -1  N  VAL A 226   O  TRP A 233           
   6 AA1 7 ILE A 204  SER A 212 -1  N  ILE A 204   O  GLU A 227           
   7 AA1 7 LEU A 196  ALA A 199 -1  N  GLU A 198   O  ILE A 205           
   1 AA2 2 ALA A  65  PHE A  66  0                                        
   2 AA2 2 ILE A 164  SER A 165 -1  O  ILE A 164   N  PHE A  66           
   1 AA3 7 TRP B  25  GLU B  27  0                                        
   2 AA3 7 GLN B  53  THR B  56  1  O  THR B  56   N  GLN B  26           
   3 AA3 7 GLY B  42  ASN B  48 -1  N  ASN B  48   O  GLN B  53           
   4 AA3 7 VAL B 232  ASP B 240 -1  O  ASN B 238   N  VAL B  43           
   5 AA3 7 ILE B 219  GLU B 227 -1  N  GLY B 224   O  PHE B 235           
   6 AA3 7 ILE B 204  SER B 212 -1  N  ILE B 204   O  GLU B 227           
   7 AA3 7 LEU B 196  ALA B 199 -1  N  GLU B 198   O  ILE B 205           
   1 AA4 2 ALA B  65  PHE B  66  0                                        
   2 AA4 2 ILE B 164  SER B 165 -1  O  ILE B 164   N  PHE B  66           
   1 AA5 7 TRP C  25  GLU C  27  0                                        
   2 AA5 7 GLN C  53  THR C  56  1  O  GLY C  54   N  GLN C  26           
   3 AA5 7 GLY C  42  ASN C  48 -1  N  ASN C  48   O  GLN C  53           
   4 AA5 7 VAL C 232  ASP C 240 -1  O  ALA C 236   N  VAL C  45           
   5 AA5 7 ILE C 219  GLU C 227 -1  N  VAL C 226   O  TRP C 233           
   6 AA5 7 ILE C 204  SER C 212 -1  N  ILE C 204   O  GLU C 227           
   7 AA5 7 LEU C 196  ALA C 199 -1  N  GLU C 198   O  ILE C 205           
   1 AA6 2 ALA C  65  PHE C  66  0                                        
   2 AA6 2 ILE C 164  SER C 165 -1  O  ILE C 164   N  PHE C  66           
   1 AA7 7 GLY D  24  GLU D  27  0                                        
   2 AA7 7 GLN D  53  THR D  56  1  O  GLY D  54   N  GLY D  24           
   3 AA7 7 GLY D  42  ASN D  48 -1  N  ASN D  48   O  GLN D  53           
   4 AA7 7 VAL D 232  ASP D 240 -1  O  ASN D 238   N  VAL D  43           
   5 AA7 7 ILE D 219  GLU D 227 -1  N  GLY D 224   O  PHE D 235           
   6 AA7 7 ILE D 204  SER D 212 -1  N  ILE D 204   O  GLU D 227           
   7 AA7 7 LEU D 196  ALA D 199 -1  N  GLU D 198   O  ILE D 205           

>  <LINK>
       OG  SER A  70                 CAT DGF A 302     1555   1555  1.38  
       OG  SER B  70                 CAT DGF B 301     1555   1555  1.38  
       OG  SER C  70                 CAT DGF C 302     1555   1555  1.38  
       OG  SER D  70                 CAT DGF D 301     1555   1555  1.37  

>  <CISPEP>
   1 GLU A  216    PRO A  217          0        -5.19                     
   2 GLU B  216    PRO B  217          0        -1.09                     
   3 GLU C  216    PRO C  217          0        -4.31                     
   4 GLU D  216    PRO D  217          0        -3.10                     

>  <SITE>
   1 AC1  2 ARG A 206  ARG B 206                                          
   1 AC2  9 ALA A  69  SER A  70  SER A 118  VAL A 120                    
   2 AC2  9 LEU A 158  THR A 209  GLY A 210  TYR A 211                    
   3 AC2  9 ARG A 250                                                     
   1 AC3  2 ARG C 206  ARG D 206                                          
   1 AC4  5 LYS C  94  TRP C  95  ASP C  96  GLU C 125                    
   2 AC4  5 HOH C 435                                                     
   1 AC5 15 PRO B  68  ALA B  69  THR B  71  PHE B  72                    
   2 AC5 15 LYS B  73  TRP B 105  SER B 118  VAL B 120                    
   3 AC5 15 LEU B 158  LYS B 208  THR B 209  GLY B 210                    
   4 AC5 15 TYR B 211  ARG B 250  HOH B 431                               
   1 AC6 14 PRO C  68  ALA C  69  THR C  71  PHE C  72                    
   2 AC6 14 LYS C  73  SER C 118  VAL C 120  LEU C 158                    
   3 AC6 14 LYS C 208  THR C 209  GLY C 210  TYR C 211                    
   4 AC6 14 ARG C 250  HOH C 462                                          
   1 AC7 13 PRO D  68  ALA D  69  THR D  71  PHE D  72                    
   2 AC7 13 LYS D  73  TRP D 105  SER D 118  VAL D 120                    
   3 AC7 13 LYS D 208  THR D 209  GLY D 210  TYR D 211                    
   4 AC7 13 ARG D 250                                                     

>  <ORIGX1>
      1.000000  0.000000  0.000000        0.00000                         

>  <ORIGX2>
      0.000000  1.000000  0.000000        0.00000                         

>  <ORIGX3>
      0.000000  0.000000  1.000000        0.00000                         

>  <SCALE1>
      0.016791  0.000000  0.004247        0.00000                         

>  <SCALE2>
      0.000000  0.009374  0.000000        0.00000                         

>  <SCALE3>
      0.000000  0.000000  0.010716        0.00000                         

>  <MASTER>
      381    0    7   52   34    0   19    6 8491    4   86   84          

$$$$
