start_structures/Ligand_Substrate/Ligand_Complex_Stripped/DVR_1GA0.pdb
 OpenBabel08222315203D

 36 40  0  0  1  0  0  0  0  0999 V2000
   17.4670   16.6390    9.9500 N   0  0  0  0  0  0  0  0  0  0  0  0
   18.2460   15.6960    9.1520 C   0  0  2  0  0  0  0  0  0  0  0  0
   18.5950   14.3450    9.7720 C   0  0  0  0  0  0  0  0  0  0  0  0
   19.0900   13.4600    9.0710 O   0  0  0  0  0  0  0  0  0  0  0  0
   19.5200   16.3580    8.6160 C   0  0  0  0  0  0  0  0  0  0  0  0
   19.1950   17.3570    7.6500 O   0  0  0  0  0  0  0  0  0  0  0  0
   22.3270   19.0640    8.7370 S   0  0  2  0  0  0  0  0  0  0  0  0
   22.8840   18.9870    8.5540 S   0  0  2  0  0  0  0  0  0  0  0  0
   22.6740   20.3880    7.5370 C   0  0  0  0  0  0  0  0  0  0  0  0
   22.6750   20.4210    7.4460 C   0  0  0  0  0  0  0  0  0  0  0  0
   22.4460   21.7520    8.2000 C   0  0  1  0  0  0  0  0  0  0  0  0
   21.1110   22.1790    8.6970 C   0  0  1  0  0  0  0  0  0  0  0  0
   19.8230   21.4290    8.5500 N   0  0  0  0  0  0  0  0  0  0  0  0
   19.4760   20.9380    7.2250 C   0  0  2  0  0  0  0  0  0  0  0  0
   18.9840   19.7270    7.0250 C   0  0  2  0  0  0  0  0  0  0  0  0
   19.0170   18.6410    8.0520 C   0  0  0  0  0  0  0  0  0  0  0  0
   18.4920   19.6160    5.6350 C   0  0  0  0  0  0  0  0  0  0  0  0
   23.6100   22.6600    8.3860 C   0  0  0  0  0  0  0  0  0  0  0  0
   24.8300   22.3690    7.9930 C   0  0  0  0  0  0  0  0  0  0  0  0
   25.9250   22.3540    8.9630 C   0  0  0  0  0  0  0  0  0  0  0  0
   26.6110   21.2620    9.1260 N   0  0  0  0  0  0  0  0  0  0  0  0
   26.2170   23.3650    9.6300 O   0  0  0  0  0  0  0  0  0  0  0  0
   18.9330   18.9240    9.2510 O   0  0  0  0  0  0  0  0  0  0  0  0
   20.9300   23.5150    9.4640 C   0  0  0  0  0  0  0  0  0  0  0  0
   21.7030   23.8440   10.3970 O   0  0  0  0  0  0  0  0  0  0  0  0
   19.9760   24.2810    9.1620 O   0  0  0  0  0  0  0  0  0  0  0  0
   23.3530   19.0540    9.7920 O   0  0  0  0  0  0  0  0  0  0  0  0
   21.7900   18.0290    8.3340 O   0  0  0  0  0  0  0  0  0  0  0  0
   22.3630   17.7440    8.0690 O   0  0  0  0  0  0  0  0  0  0  0  0
   22.8190   19.3930    9.9640 O   0  0  0  0  0  0  0  0  0  0  0  0
   18.9280   20.7460    5.0440 C   0  0  1  0  0  0  0  0  0  0  0  0
   18.6720   21.2010    3.6600 C   0  0  0  0  0  0  0  0  0  0  0  0
   19.6950   21.5460    5.9590 N   0  0  1  0  0  0  0  0  0  0  0  0
   18.7480   22.5630    3.4470 C   0  0  0  0  0  0  0  0  0  0  0  0
   19.3020   22.9720    5.8420 C   0  0  0  0  0  0  0  0  0  0  0  0
   19.1540   23.5020    4.5840 C   0  0  0  0  0  0  0  0  0  0  0  0
  2  3  1  0  0  0  0
  2  1  1  1  0  0  0
  4  3  2  0  0  0  0
  5  2  1  0  0  0  0
  6 16  1  0  0  0  0
  6  5  1  0  0  0  0
  7  9  1  6  0  0  0
  7 27  1  0  0  0  0
  7 29  1  0  0  0  0
  8 10  1  6  0  0  0
  8 28  1  0  0  0  0
  8 30  1  0  0  0  0
  8  7  1  0  0  0  0
 10 11  1  0  0  0  0
 11  9  1  1  0  0  0
 11 12  1  0  0  0  0
 11 18  1  0  0  0  0
 12 13  1  1  0  0  0
 12 24  1  0  0  0  0
 14 13  1  6  0  0  0
 14 15  1  0  0  0  0
 14 33  1  0  0  0  0
 15 16  1  6  0  0  0
 15 17  1  0  0  0  0
 16 23  2  0  0  0  0
 18 19  1  0  0  0  0
 19 20  1  0  0  0  0
 20 21  1  0  0  0  0
 20 22  2  0  0  0  0
 24 25  2  0  0  0  0
 24 26  1  0  0  0  0
 27 30  1  0  0  0  0
 29 28  1  0  0  0  0
 31 17  1  1  0  0  0
 31 32  1  0  0  0  0
 31 33  1  0  0  0  0
 32 34  1  0  0  0  0
 33 35  1  1  0  0  0
 34 36  2  0  0  0  0
 35 36  1  0  0  0  0
M  END
>  <HEADER>
    HYDROLASE                               28-NOV-00   1GA0              

>  <TITLE>
    STRUCTURE OF THE E. CLOACAE GC1 BETA-LACTAMASE WITH A CEPHALOSPORIN   
   2 SULFONE INHIBITOR                                                    

>  <COMPND>
    MOL_ID: 1;                                                            
   2 MOLECULE: BETA-LACTAMASE;                                            
   3 CHAIN: A;                                                            
   4 EC: 3.5.2.6;                                                         
   5 ENGINEERED: YES                                                      

>  <SOURCE>
    MOL_ID: 1;                                                            
   2 ORGANISM_SCIENTIFIC: ENTEROBACTER CLOACAE;                           
   3 ORGANISM_TAXID: 550;                                                 
   4 GENE: BLAC;                                                          
   5 EXPRESSION_SYSTEM: ESCHERICHIA COLI;                                 
   6 EXPRESSION_SYSTEM_TAXID: 562;                                        
   7 EXPRESSION_SYSTEM_STRAIN: AS226-51;                                  
   8 EXPRESSION_SYSTEM_VECTOR_TYPE: PLASMID;                              
   9 EXPRESSION_SYSTEM_PLASMID: PCS101                                    

>  <KEYWDS>
    MIXED ALPHA/BETA, CEPHALOSPORINASE, INHIBITION, CONFORMATIONAL        
   2 CHANGE, CLASS C BETA-LACTAMASE, HYDROLASE                            

>  <EXPDTA>
    X-RAY DIFFRACTION                                                     

>  <AUTHOR>
    G.V.CRICHLOW,M.NUKAGA,J.D.BUYNAK,J.R.KNOX                             

>  <REVDAT>
   6   09-AUG-23 1GA0    1       REMARK LINK                              
   5   16-NOV-11 1GA0    1       HETATM                                   
   4   13-JUL-11 1GA0    1       VERSN                                    
   3   24-FEB-09 1GA0    1       VERSN                                    
   2   01-APR-03 1GA0    1       JRNL                                     
   1   06-JUN-01 1GA0    0                                                

>  <JRNL>
      AUTH   G.V.CRICHLOW,M.NUKAGA,V.R.DOPPALAPUDI,J.D.BUYNAK,J.R.KNOX    
      TITL   INHIBITION OF CLASS C BETA-LACTAMASES: STRUCTURE OF A        
      TITL 2 REACTION INTERMEDIATE WITH A CEPHEM SULFONE.                 
      REF    BIOCHEMISTRY                  V.  40  6233 2001              
      REFN                   ISSN 0006-2960                               
      PMID   11371184                                                     
      DOI    10.1021/BI010131S                                            

>  <REMARK>
   2                                                                      
   2 RESOLUTION.    1.60 ANGSTROMS.                                       
   3                                                                      
   3 REFINEMENT.                                                          
   3   PROGRAM     : CNS 1.0                                              
   3   AUTHORS     : BRUNGER,ADAMS,CLORE,DELANO,GROS,GROSSE-              
   3               : KUNSTLEVE,JIANG,KUSZEWSKI,NILGES,PANNU,              
   3               : READ,RICE,SIMONSON,WARREN                            
   3                                                                      
   3  REFINEMENT TARGET : ENGH & HUBER (FOR THE PROTEIN)                  
   3                                                                      
   3  DATA USED IN REFINEMENT.                                            
   3   RESOLUTION RANGE HIGH (ANGSTROMS) : 1.60                           
   3   RESOLUTION RANGE LOW  (ANGSTROMS) : 100.00                         
   3   DATA CUTOFF            (SIGMA(F)) : 0.000                          
   3   DATA CUTOFF HIGH         (ABS(F)) : NULL                           
   3   DATA CUTOFF LOW          (ABS(F)) : NULL                           
   3   COMPLETENESS (WORKING+TEST)   (%) : 100.0                          
   3   NUMBER OF REFLECTIONS             : 28503                          
   3                                                                      
   3  FIT TO DATA USED IN REFINEMENT.                                     
   3   CROSS-VALIDATION METHOD          : THROUGHOUT                      
   3   FREE R VALUE TEST SET SELECTION  : RANDOM                          
   3   R VALUE            (WORKING SET) : 0.181                           
   3   FREE R VALUE                     : 0.208                           
   3   FREE R VALUE TEST SET SIZE   (%) : NULL                            
   3   FREE R VALUE TEST SET COUNT      : 1672                            
   3   ESTIMATED ERROR OF FREE R VALUE  : NULL                            
   3                                                                      
   3  FIT IN THE HIGHEST RESOLUTION BIN.                                  
   3   TOTAL NUMBER OF BINS USED           : NULL                         
   3   BIN RESOLUTION RANGE HIGH       (A) : NULL                         
   3   BIN RESOLUTION RANGE LOW        (A) : NULL                         
   3   BIN COMPLETENESS (WORKING+TEST) (%) : NULL                         
   3   REFLECTIONS IN BIN    (WORKING SET) : NULL                         
   3   BIN R VALUE           (WORKING SET) : NULL                         
   3   BIN FREE R VALUE                    : NULL                         
   3   BIN FREE R VALUE TEST SET SIZE  (%) : NULL                         
   3   BIN FREE R VALUE TEST SET COUNT     : NULL                         
   3   ESTIMATED ERROR OF BIN FREE R VALUE : NULL                         
   3                                                                      
   3  NUMBER OF NON-HYDROGEN ATOMS USED IN REFINEMENT.                    
   3   PROTEIN ATOMS            : 2783                                    
   3   NUCLEIC ACID ATOMS       : 0                                       
   3   HETEROGEN ATOMS          : 33                                      
   3   SOLVENT ATOMS            : 315                                     
   3                                                                      
   3  B VALUES.                                                           
   3   FROM WILSON PLOT           (A**2) : 10.80                          
   3   MEAN B VALUE      (OVERALL, A**2) : 14.70                          
   3   OVERALL ANISOTROPIC B VALUE.                                       
   3    B11 (A**2) : NULL                                                 
   3    B22 (A**2) : NULL                                                 
   3    B33 (A**2) : NULL                                                 
   3    B12 (A**2) : NULL                                                 
   3    B13 (A**2) : NULL                                                 
   3    B23 (A**2) : NULL                                                 
   3                                                                      
   3  ESTIMATED COORDINATE ERROR.                                         
   3   ESD FROM LUZZATI PLOT        (A) : 0.20                            
   3   ESD FROM SIGMAA              (A) : NULL                            
   3   LOW RESOLUTION CUTOFF        (A) : 5.00                            
   3                                                                      
   3  CROSS-VALIDATED ESTIMATED COORDINATE ERROR.                         
   3   ESD FROM C-V LUZZATI PLOT    (A) : 0.22                            
   3   ESD FROM C-V SIGMAA          (A) : NULL                            
   3                                                                      
   3  RMS DEVIATIONS FROM IDEAL VALUES.                                   
   3   BOND LENGTHS                 (A) : 0.009                           
   3   BOND ANGLES            (DEGREES) : 1.470                           
   3   DIHEDRAL ANGLES        (DEGREES) : NULL                            
   3   IMPROPER ANGLES        (DEGREES) : NULL                            
   3                                                                      
   3  ISOTROPIC THERMAL MODEL : RESTRAINED, ISOTROPIC                     
   3                                                                      
   3  ISOTROPIC THERMAL FACTOR RESTRAINTS.    RMS    SIGMA                
   3   MAIN-CHAIN BOND              (A**2) : NULL  ; NULL                 
   3   MAIN-CHAIN ANGLE             (A**2) : NULL  ; NULL                 
   3   SIDE-CHAIN BOND              (A**2) : NULL  ; NULL                 
   3   SIDE-CHAIN ANGLE             (A**2) : NULL  ; NULL                 
   3                                                                      
   3  BULK SOLVENT MODELING.                                              
   3   METHOD USED : NULL                                                 
   3   KSOL        : NULL                                                 
   3   BSOL        : NULL                                                 
   3                                                                      
   3  NCS MODEL : NULL                                                    
   3                                                                      
   3  NCS RESTRAINTS.                         RMS   SIGMA/WEIGHT          
   3   GROUP  1  POSITIONAL            (A) : NULL  ; NULL                 
   3   GROUP  1  B-FACTOR           (A**2) : NULL  ; NULL                 
   3                                                                      
   3  PARAMETER FILE  1  : NULL                                           
   3  TOPOLOGY FILE  1   : NULL                                           
   3                                                                      
   3  OTHER REFINEMENT REMARKS:                                           
   3  INTERMEDIATE ASSIGNED OCCUPANCY OF 1; HOWEVER, IT MAY BE LESS.      
   3  THERE ARE SIX ALTERNATE SIDE CHAIN CONFORMATIONS IN THE PROTEIN     
   3  AND ONE ALTERNATE CONFORMATION FOR ATOM C2 AND THE SULFINATE ATOMS  
   3  OF THE INHIBITOR.                                                   
   3  A BULK SOLVENT CORRECTION WAS USED.                                 
   4                                                                      
   4 1GA0 COMPLIES WITH FORMAT V. 3.30, 13-JUL-11                         
 100                                                                      
 100 THIS ENTRY HAS BEEN PROCESSED BY RCSB ON 13-DEC-00.                  
 100 THE DEPOSITION ID IS D_1000012419.                                   
 200                                                                      
 200 EXPERIMENTAL DETAILS                                                 
 200  EXPERIMENT TYPE                : X-RAY DIFFRACTION                  
 200  DATE OF DATA COLLECTION        : 10-FEB-99                          
 200  TEMPERATURE           (KELVIN) : 100                                
 200  PH                             : 7.0                                
 200  NUMBER OF CRYSTALS USED        : 1                                  
 200                                                                      
 200  SYNCHROTRON              (Y/N) : Y                                  
 200  RADIATION SOURCE               : CHESS                              
 200  BEAMLINE                       : A1                                 
 200  X-RAY GENERATOR MODEL          : NULL                               
 200  MONOCHROMATIC OR LAUE    (M/L) : M                                  
 200  WAVELENGTH OR RANGE        (A) : 0.935                              
 200  MONOCHROMATOR                  : NULL                               
 200  OPTICS                         : NULL                               
 200                                                                      
 200  DETECTOR TYPE                  : CCD                                
 200  DETECTOR MANUFACTURER          : ADSC QUANTUM 4                     
 200  INTENSITY-INTEGRATION SOFTWARE : DENZO                              
 200  DATA SCALING SOFTWARE          : SCALEPACK                          
 200                                                                      
 200  NUMBER OF UNIQUE REFLECTIONS   : 29788                              
 200  RESOLUTION RANGE HIGH      (A) : 1.600                              
 200  RESOLUTION RANGE LOW       (A) : 50.000                             
 200  REJECTION CRITERIA  (SIGMA(I)) : -3.000                             
 200                                                                      
 200 OVERALL.                                                             
 200  COMPLETENESS FOR RANGE     (%) : 66.1                               
 200  DATA REDUNDANCY                : 3.200                              
 200  R MERGE                    (I) : 0.08700                            
 200  R SYM                      (I) : NULL                               
 200  <I/SIGMA(I)> FOR THE DATA SET  : 7.8000                             
 200                                                                      
 200 IN THE HIGHEST RESOLUTION SHELL.                                     
 200  HIGHEST RESOLUTION SHELL, RANGE HIGH (A) : 1.60                     
 200  HIGHEST RESOLUTION SHELL, RANGE LOW  (A) : 2.02                     
 200  COMPLETENESS FOR SHELL     (%) : 32.2                               
 200  DATA REDUNDANCY IN SHELL       : 1.70                               
 200  R MERGE FOR SHELL          (I) : 0.31000                            
 200  R SYM FOR SHELL            (I) : NULL                               
 200  <I/SIGMA(I)> FOR SHELL         : 2.700                              
 200                                                                      
 200 DIFFRACTION PROTOCOL: SINGLE WAVELENGTH                              
 200 METHOD USED TO DETERMINE THE STRUCTURE: MOLECULAR REPLACEMENT        
 200 SOFTWARE USED: AMORE                                                 
 200 STARTING MODEL: PDB ENTRY 1GCE                                       
 200                                                                      
 200 REMARK: NULL                                                         
 280                                                                      
 280 CRYSTAL                                                              
 280 SOLVENT CONTENT, VS   (%): 41.27                                     
 280 MATTHEWS COEFFICIENT, VM (ANGSTROMS**3/DA): 2.09                     
 280                                                                      
 280 CRYSTALLIZATION CONDITIONS: 6.3 MG/ML ENZYME, 5.5% PEG 3350, 9 MM    
 280  IMIDAZOLE; OVER A RESERVOIR OF 24% PEG 3350. CRYSTAL WAS REACTED    
 280  WITH 9 MM DVR-II-41S IN 15 MM IMIDAZOLE/28% PEG 3350, PH 7.0 FOR    
 280  3 HR. AND THEN SOAKED IN AN IDENTICAL SOLUTION FOR 35 MIN. THE      
 280  CRYSTAL WAS SOAKED IN A CRYO-PROTECTANT SOLUTION OF 25% GLYCEROL/   
 280  20 MM HEPES (PH 7)/24% PEG FOR 2 MIN. PRIOR TO CRYO-FREEZING.,      
 280  VAPOR DIFFUSION, SITTING DROP, TEMPERATURE 293K                     
 290                                                                      
 290 CRYSTALLOGRAPHIC SYMMETRY                                            
 290 SYMMETRY OPERATORS FOR SPACE GROUP: P 21 21 2                        
 290                                                                      
 290      SYMOP   SYMMETRY                                                
 290     NNNMMM   OPERATOR                                                
 290       1555   X,Y,Z                                                   
 290       2555   -X,-Y,Z                                                 
 290       3555   -X+1/2,Y+1/2,-Z                                         
 290       4555   X+1/2,-Y+1/2,-Z                                         
 290                                                                      
 290     WHERE NNN -> OPERATOR NUMBER                                     
 290           MMM -> TRANSLATION VECTOR                                  
 290                                                                      
 290 CRYSTALLOGRAPHIC SYMMETRY TRANSFORMATIONS                            
 290 THE FOLLOWING TRANSFORMATIONS OPERATE ON THE ATOM/HETATM             
 290 RECORDS IN THIS ENTRY TO PRODUCE CRYSTALLOGRAPHICALLY                
 290 RELATED MOLECULES.                                                   
 290   SMTRY1   1  1.000000  0.000000  0.000000        0.00000            
 290   SMTRY2   1  0.000000  1.000000  0.000000        0.00000            
 290   SMTRY3   1  0.000000  0.000000  1.000000        0.00000            
 290   SMTRY1   2 -1.000000  0.000000  0.000000        0.00000            
 290   SMTRY2   2  0.000000 -1.000000  0.000000        0.00000            
 290   SMTRY3   2  0.000000  0.000000  1.000000        0.00000            
 290   SMTRY1   3 -1.000000  0.000000  0.000000       38.50000            
 290   SMTRY2   3  0.000000  1.000000  0.000000       34.50000            
 290   SMTRY3   3  0.000000  0.000000 -1.000000        0.00000            
 290   SMTRY1   4  1.000000  0.000000  0.000000       38.50000            
 290   SMTRY2   4  0.000000 -1.000000  0.000000       34.50000            
 290   SMTRY3   4  0.000000  0.000000 -1.000000        0.00000            
 290                                                                      
 290 REMARK: NULL                                                         
 300                                                                      
 300 BIOMOLECULE: 1                                                       
 300 SEE REMARK 350 FOR THE AUTHOR PROVIDED AND/OR PROGRAM                
 300 GENERATED ASSEMBLY INFORMATION FOR THE STRUCTURE IN                  
 300 THIS ENTRY. THE REMARK MAY ALSO PROVIDE INFORMATION ON               
 300 BURIED SURFACE AREA.                                                 
 350                                                                      
 350 COORDINATES FOR A COMPLETE MULTIMER REPRESENTING THE KNOWN           
 350 BIOLOGICALLY SIGNIFICANT OLIGOMERIZATION STATE OF THE                
 350 MOLECULE CAN BE GENERATED BY APPLYING BIOMT TRANSFORMATIONS          
 350 GIVEN BELOW.  BOTH NON-CRYSTALLOGRAPHIC AND                          
 350 CRYSTALLOGRAPHIC OPERATIONS ARE GIVEN.                               
 350                                                                      
 350 BIOMOLECULE: 1                                                       
 350 AUTHOR DETERMINED BIOLOGICAL UNIT: MONOMERIC                         
 350 APPLY THE FOLLOWING TO CHAINS: A                                     
 350   BIOMT1   1  1.000000  0.000000  0.000000        0.00000            
 350   BIOMT2   1  0.000000  1.000000  0.000000        0.00000            
 350   BIOMT3   1  0.000000  0.000000  1.000000        0.00000            
 375                                                                      
 375 SPECIAL POSITION                                                     
 375 THE FOLLOWING ATOMS ARE FOUND TO BE WITHIN 0.15 ANGSTROMS            
 375 OF A SYMMETRY RELATED ATOM AND ARE ASSUMED TO BE ON SPECIAL          
 375 POSITIONS.                                                           
 375                                                                      
 375 ATOM RES CSSEQI                                                      
 375      HOH A 693  LIES ON A SPECIAL POSITION.                          
 465                                                                      
 465 MISSING RESIDUES                                                     
 465 THE FOLLOWING RESIDUES WERE NOT LOCATED IN THE                       
 465 EXPERIMENT. (M=MODEL NUMBER; RES=RESIDUE NAME; C=CHAIN               
 465 IDENTIFIER; SSSEQ=SEQUENCE NUMBER; I=INSERTION CODE.)                
 465                                                                      
 465   M RES C SSSEQI                                                     
 465     THR A     1                                                      
 470                                                                      
 470 MISSING ATOM                                                         
 470 THE FOLLOWING RESIDUES HAVE MISSING ATOMS (M=MODEL NUMBER;           
 470 RES=RESIDUE NAME; C=CHAIN IDENTIFIER; SSEQ=SEQUENCE NUMBER;          
 470 I=INSERTION CODE):                                                   
 470   M RES CSSEQI  ATOMS                                                
 470     GLN A 120    OE1  NE2                                            
 500                                                                      
 500 GEOMETRY AND STEREOCHEMISTRY                                         
 500 SUBTOPIC: TORSION ANGLES                                             
 500                                                                      
 500 TORSION ANGLES OUTSIDE THE EXPECTED RAMACHANDRAN REGIONS:            
 500 (M=MODEL NUMBER; RES=RESIDUE NAME; C=CHAIN IDENTIFIER;               
 500 SSEQ=SEQUENCE NUMBER; I=INSERTION CODE).                             
 500                                                                      
 500 STANDARD TABLE:                                                      
 500 FORMAT:(10X,I3,1X,A3,1X,A1,I4,A1,4X,F7.2,3X,F7.2)                    
 500                                                                      
 500 EXPECTED VALUES: GJ KLEYWEGT AND TA JONES (1996). PHI/PSI-           
 500 CHOLOGY: RAMACHANDRAN REVISITED. STRUCTURE 4, 1395 - 1400            
 500                                                                      
 500  M RES CSSEQI        PSI       PHI                                   
 500    SER A 154      -66.76    -90.04                                   
 500    ASN A 344       46.19    -99.60                                   
 500                                                                      
 500 REMARK: NULL                                                         
 800                                                                      
 800 SITE                                                                 
 800 SITE_IDENTIFIER: AC1                                                 
 800 EVIDENCE_CODE: SOFTWARE                                              
 800 SITE_DESCRIPTION: BINDING SITE FOR RESIDUE NA A 801                  
 800                                                                      
 800 SITE_IDENTIFIER: AC2                                                 
 800 EVIDENCE_CODE: SOFTWARE                                              
 800 SITE_DESCRIPTION: BINDING SITE FOR RESIDUE DVR A 400                 
 800                                                                      
 800 SITE_IDENTIFIER: AC3                                                 
 800 EVIDENCE_CODE: SOFTWARE                                              
 800 SITE_DESCRIPTION: BINDING SITE FOR RESIDUE GOL A 800                 
 900                                                                      
 900 RELATED ENTRIES                                                      
 900 RELATED ID: 1GCE   RELATED DB: PDB                                   
 900 COORDINATES FOR UNLIGANDED BETA-LACTAMASE.                           
 900 RELATED ID: 1BLS   RELATED DB: PDB                                   
 900 WILD-TYPE BETA-LACTAMASE WITH A PHOSPHONATE INHIBITOR BOUND          
 900 RELATED ID: 2BLT   RELATED DB: PDB                                   
 900 WILD-TYPE UNLIGANDED ENZYME                                          

>  <DBREF>
 1GA0 A    1   364  UNP    Q59401   Q59401_ENTCL    21    384             

>  <SEQRES>
   1 A  364  THR PRO VAL SER GLU LYS GLN LEU ALA GLU VAL VAL ALA          
   2 A  364  ASN THR VAL THR PRO LEU MET LYS ALA GLN SER VAL PRO          
   3 A  364  GLY MET ALA VAL ALA VAL ILE TYR GLN GLY LYS PRO HIS          
   4 A  364  TYR TYR THR PHE GLY LYS ALA ASP ILE ALA ALA ASN LYS          
   5 A  364  PRO VAL THR PRO GLN THR LEU PHE GLU LEU GLY SER ILE          
   6 A  364  SER LYS THR PHE THR GLY VAL LEU GLY GLY ASP ALA ILE          
   7 A  364  ALA ARG GLY GLU ILE SER LEU ASP ASP PRO VAL THR ARG          
   8 A  364  TYR TRP PRO GLN LEU THR GLY LYS GLN TRP GLN GLY ILE          
   9 A  364  ARG MET LEU ASP LEU ALA THR TYR THR ALA GLY GLY LEU          
  10 A  364  PRO LEU GLN VAL PRO ASP GLU VAL THR ASP ASN ALA SER          
  11 A  364  LEU LEU ARG PHE TYR GLN ASN TRP GLN PRO GLN TRP LYS          
  12 A  364  PRO GLY THR THR ARG LEU TYR ALA ASN ALA SER ILE GLY          
  13 A  364  LEU PHE GLY ALA LEU ALA VAL LYS PRO SER GLY MET PRO          
  14 A  364  TYR GLU GLN ALA MET THR THR ARG VAL LEU LYS PRO LEU          
  15 A  364  LYS LEU ASP HIS THR TRP ILE ASN VAL PRO LYS ALA GLU          
  16 A  364  GLU ALA HIS TYR ALA TRP GLY TYR ARG ASP GLY LYS ALA          
  17 A  364  VAL ARG ALA VAL ARG VAL SER PRO GLY MET LEU ASP ALA          
  18 A  364  GLN ALA TYR GLY VAL LYS THR ASN VAL GLN ASP MET ALA          
  19 A  364  ASN TRP VAL MET ALA ASN MET ALA PRO GLU ASN VAL ALA          
  20 A  364  ASP ALA SER LEU LYS GLN GLY ILE ALA LEU ALA GLN SER          
  21 A  364  ARG TYR TRP ARG ILE GLY SER MET TYR GLN GLY LEU GLY          
  22 A  364  TRP GLU MET LEU ASN TRP PRO VAL GLU ALA ASN THR VAL          
  23 A  364  VAL GLU GLY SER ASP SER LYS VAL ALA LEU ALA PRO LEU          
  24 A  364  PRO VAL ALA GLU VAL ASN PRO PRO ALA PRO PRO VAL LYS          
  25 A  364  ALA SER TRP VAL HIS LYS THR GLY SER THR GLY GLY PHE          
  26 A  364  GLY SER TYR VAL ALA PHE ILE PRO GLU LYS GLN ILE GLY          
  27 A  364  ILE VAL MET LEU ALA ASN THR SER TYR PRO ASN PRO ALA          
  28 A  364  ARG VAL GLU ALA ALA TYR HIS ILE LEU GLU ALA LEU GLN          

>  <HET>
  NA  A 801       1                                                       
 DVR  A 400      30                                                       
 GOL  A 800       6                                                       

>  <HETNAM>
      NA SODIUM ION                                                       
     DVR 3-(4-CARBAMOYL-1-CARBOXY-2-METHYLSULFONYL-BUTA-1,3-              
   2 DVR  DIENYLAMINO)-INDOLIZINE-2-CARBOXYLIC ACID                       
     GOL GLYCEROL                                                         

>  <HETSYN>
     GOL GLYCERIN; PROPANE-1,2,3-TRIOL                                    

>  <FORMUL>
   2   NA    NA 1+                                                        
   3  DVR    C16 H15 N3 O6 S                                              
   4  GOL    C3 H8 O3                                                     
   5  HOH   *315(H2 O)                                                    

>  <HELIX>
   1   1 SER A    4  GLN A   23  1                                  20    
   2   2 ILE A   65  ARG A   80  1                                  16    
   3   3 VAL A   89  TYR A   92  5                                   4    
   4   4 GLY A   98  GLN A  102  5                                   5    
   5   5 ARG A  105  THR A  111  1                                   7    
   6   6 ASP A  127  TRP A  138  1                                  12    
   7   7 ALA A  151  VAL A  163  1                                  13    
   8   8 PRO A  169  VAL A  178  1                                  10    
   9   9 GLU A  195  HIS A  198  5                                   4    
  10  10 LEU A  219  GLY A  225  1                                   7    
  11  11 ASN A  229  ALA A  242  1                                  14    
  12  12 PRO A  243  VAL A  246  5                                   4    
  13  13 ASP A  248  GLN A  259  1                                  12    
  14  14 GLU A  282  SER A  290  1                                   9    
  15  15 ASP A  291  LEU A  296  1                                   6    
  16  16 PRO A  348  LEU A  363  1                                  16    

>  <SHEET>
   1   A10 LYS A  52  PRO A  53  0                                        
   2   A10 LYS A  37  ASP A  47 -1  N  ALA A  46   O  LYS A  52           
   3   A10 GLY A  27  TYR A  34 -1  O  MET A  28   N  PHE A  43           
   4   A10 ILE A 337  ALA A 343 -1  O  GLY A 338   N  ILE A  33           
   5   A10 GLY A 326  ILE A 332 -1  N  GLY A 326   O  ALA A 343           
   6   A10 SER A 314  SER A 321 -1  N  VAL A 316   O  PHE A 331           
   7   A10 GLU A 275  ASN A 278 -1  O  GLU A 275   N  HIS A 317           
   8   A10 MET A 268  GLN A 270 -1  N  TYR A 269   O  MET A 276           
   9   A10 ARG A 261  ILE A 265 -1  N  TYR A 262   O  GLN A 270           
  10   A10 ALA A 302  ALA A 308 -1  O  ALA A 302   N  ARG A 264           
   1   B 3 PHE A  60  GLU A  61  0                                        
   2   B 3 LYS A 227  THR A 228 -1  O  THR A 228   N  PHE A  60           
   3   B 3 THR A 187  TRP A 188 -1  O  TRP A 188   N  LYS A 227           
   1   C 2 THR A 147  ARG A 148  0                                        
   2   C 2 LEU A 299  PRO A 300 -1  O  LEU A 299   N  ARG A 148           
   1   D 2 GLY A 202  ARG A 204  0                                        
   2   D 2 LYS A 207  VAL A 209 -1  O  LYS A 207   N  ARG A 204           

>  <LINK>
       OG  SER A  64                 C8  DVR A 400     1555   1555  1.36  
       OE2 GLU A 124                NA    NA A 801     1555   1555  2.03  

>  <CISPEP>
   1 TRP A  279    PRO A  280          0         0.37                     
   2 ASN A  305    PRO A  306          0        -0.18                     

>  <SITE>
   1 AC1  7 PRO A 122  GLU A 124  GLN A 253  ALA A 256                    
   2 AC1  7 HOH A 470  HOH A 497  HOH A 570                               
   1 AC2 17 SER A  64  LEU A 119  GLN A 120  TYR A 150                    
   2 AC2 17 ASN A 152  SER A 290  SER A 292  ALA A 295                    
   3 AC2 17 LYS A 318  THR A 319  GLY A 320  SER A 321                    
   4 AC2 17 ASN A 349  HOH A 549  HOH A 557  HOH A 593                    
   5 AC2 17 HOH A 703                                                     
   1 AC3  7 PRO A 181  LEU A 182  ASN A 245  VAL A 246                    
   2 AC3  7 ALA A 247  ASP A 248  HOH A 664                               

>  <ORIGX1>
      1.000000  0.000000  0.000000        0.00000                         

>  <ORIGX2>
      0.000000  1.000000  0.000000        0.00000                         

>  <ORIGX3>
      0.000000  0.000000  1.000000        0.00000                         

>  <SCALE1>
      0.012987  0.000000  0.000000        0.00000                         

>  <SCALE2>
      0.000000  0.014493  0.000000        0.00000                         

>  <SCALE3>
      0.000000  0.000000  0.016000        0.00000                         

>  <MASTER>
      281    0    3   16   17    0    9    6 3131    1   39   28          

$$$$
