start_structures/Ligand_Substrate/Ligand_Complex_Stripped/DWZ_3DWZ.pdb
 OpenBabel08222315193D

 32 33  0  0  1  0  0  0  0  0999 V2000
  -14.8870   10.9720   -5.7100 N   0  0  0  0  0  0  0  0  0  0  0  0
  -14.3230   10.8220   -7.0600 C   0  0  2  0  0  0  0  0  0  0  0  0
  -15.3350    9.9480   -7.7590 C   0  0  0  0  0  0  0  0  0  0  0  0
  -14.9790    9.6030   -9.0400 O   0  0  0  0  0  0  0  0  0  0  0  0
  -13.0100   10.0800   -6.9110 C   0  0  0  0  0  0  0  0  0  0  0  0
  -12.1500   11.1400   -6.4550 O   0  0  0  0  0  0  0  0  0  0  0  0
   -3.7900    8.8800   -2.0470 C   0  0  0  0  0  0  0  0  0  0  0  0
   -2.8560    8.6360   -3.1630 N   0  0  0  0  0  0  0  0  0  0  0  0
   -1.8550    9.5040   -3.3070 C   0  0  0  0  0  0  0  0  0  0  0  0
   -3.0040    7.5800   -4.0120 C   0  0  0  0  0  0  0  0  0  0  0  0
   -2.2130    7.3720   -4.9380 O   0  0  0  0  0  0  0  0  0  0  0  0
   -4.1850    6.5580   -3.8290 C   0  0  2  0  0  0  0  0  0  0  0  0
   -5.1000    6.5510   -5.0840 C   0  0  0  0  0  0  0  0  0  0  0  0
   -5.0770    6.8560   -2.6890 N   0  0  0  0  0  0  0  0  0  0  0  0
   -6.3860    6.3510   -3.1130 C   0  0  0  0  0  0  0  0  0  0  0  0
   -6.4890    6.8810   -4.5410 C   0  0  1  0  0  0  0  0  0  0  0  0
   -6.7980    8.6990   -4.6360 S   0  0  0  0  0  0  0  0  0  0  0  0
   -8.2680    9.0770   -3.5830 C   0  0  1  0  0  0  0  0  0  0  0  0
   -8.4670   10.5930   -3.6580 C   0  0  2  0  0  0  0  0  0  0  0  0
   -9.0560   11.1280   -2.3370 C   0  0  0  0  0  0  0  0  0  0  0  0
   -9.5090    8.5770   -4.3030 C   0  0  2  0  0  0  0  0  0  0  0  0
  -10.0970    7.1870   -4.2670 C   0  0  0  0  0  0  0  0  0  0  0  0
  -11.0820    6.9910   -4.9840 O   0  0  0  0  0  0  0  0  0  0  0  0
   -9.5630    6.3330   -3.5510 O   0  0  0  0  0  0  0  0  0  0  0  0
  -10.0500    9.5000   -5.0690 N   0  0  0  0  0  0  0  0  0  0  0  0
   -9.3750   10.7920   -4.9160 C   0  0  1  0  0  0  0  0  0  0  0  0
  -10.5350   11.7820   -4.6600 C   0  0  1  0  0  0  0  0  0  0  0  0
  -10.3200   13.1650   -5.3150 C   0  0  1  0  0  0  0  0  0  0  0  0
   -9.1470   13.9040   -4.6620 C   0  0  0  0  0  0  0  0  0  0  0  0
  -10.1550   13.0880   -6.7640 O   0  0  0  0  0  0  0  0  0  0  0  0
  -11.8610   11.1350   -5.1270 C   0  0  0  0  0  0  0  0  0  0  0  0
  -12.6300   10.5850   -4.3230 O   0  0  0  0  0  0  0  0  0  0  0  0
  2  5  1  0  0  0  0
  2  1  1  1  0  0  0
  3  2  1  0  0  0  0
  4  3  1  0  0  0  0
  5  6  1  0  0  0  0
  6 31  1  0  0  0  0
  7  8  1  0  0  0  0
  8  9  1  0  0  0  0
  8 10  1  0  0  0  0
 10 11  2  0  0  0  0
 12 10  1  6  0  0  0
 12 13  1  0  0  0  0
 12 14  1  0  0  0  0
 13 16  1  0  0  0  0
 14 15  1  0  0  0  0
 15 16  1  0  0  0  0
 16 17  1  1  0  0  0
 18 17  1  6  0  0  0
 18 19  1  0  0  0  0
 18 21  1  0  0  0  0
 19 20  1  1  0  0  0
 19 26  1  0  0  0  0
 21 22  1  6  0  0  0
 21 25  1  0  0  0  0
 22 23  2  0  0  0  0
 22 24  1  0  0  0  0
 25 26  1  0  0  0  0
 26 27  1  1  0  0  0
 27 28  1  0  0  0  0
 27 31  1  6  0  0  0
 28 29  1  1  0  0  0
 28 30  1  0  0  0  0
 31 32  2  0  0  0  0
M  END
>  <HEADER>
    HYDROLASE/ANTIBIOTIC                    23-JUL-08   3DWZ              

>  <TITLE>
    MEROPENEM COVALENT ADDUCT WITH TB BETA-LACTAMASE                      

>  <COMPND>
    MOL_ID: 1;                                                            
   2 MOLECULE: BETA-LACTAMASE;                                            
   3 CHAIN: A;                                                            
   4 FRAGMENT: RESIDUES 43-307;                                           
   5 SYNONYM: PENICILLINASE;                                              
   6 EC: 3.5.2.6;                                                         
   7 ENGINEERED: YES                                                      

>  <SOURCE>
    MOL_ID: 1;                                                            
   2 ORGANISM_SCIENTIFIC: MYCOBACTERIUM TUBERCULOSIS;                     
   3 ORGANISM_TAXID: 1773;                                                
   4 STRAIN: H37RA;                                                       
   5 GENE: BLAA, BLAC;                                                    
   6 EXPRESSION_SYSTEM: ESCHERICHIA COLI;                                 
   7 EXPRESSION_SYSTEM_TAXID: 562;                                        
   8 EXPRESSION_SYSTEM_STRAIN: ROSETTA2 CELLS;                            
   9 EXPRESSION_SYSTEM_VECTOR_TYPE: PET;                                  
  10 EXPRESSION_SYSTEM_PLASMID: PET28A                                    

>  <KEYWDS>
    ALPHA-BETA FOLDED PROTEIN, PROTEIN-COVALENT ADDUCT, ANTIBIOTIC        
   2 RESISTANCE, HYDROLASE, LIPOPROTEIN, MEMBRANE, PALMITATE, MEROPENEM   
   3 (OPEN FORM), HYDROLASE-ANTIBIOTIC COMPLEX                            

>  <EXPDTA>
    X-RAY DIFFRACTION                                                     

>  <AUTHOR>
    L.W.TREMBLAY,J.E.HUGONNET,J.S.BLANCHARD                               

>  <REVDAT>
   4   02-FEB-22 3DWZ    1       COMPND REMARK HETNAM HETSYN              
   4 2                   1       LINK                                     
   3   24-JAN-18 3DWZ    1       AUTHOR                                   
   2   08-SEP-09 3DWZ    1       HEADER KEYWDS                            
   1   10-MAR-09 3DWZ    0                                                

>  <JRNL>
      AUTH   J.E.HUGONNET,L.W.TREMBLAY,H.I.BOSHOFF,C.E.BARRY,             
      AUTH 2 J.S.BLANCHARD                                                
      TITL   MEROPENEM-CLAVULANATE IS EFFECTIVE AGAINST EXTENSIVELY       
      TITL 2 DRUG-RESISTANT MYCOBACTERIUM TUBERCULOSIS                    
      REF    SCIENCE                       V. 323  1215 2009              
      REFN                   ISSN 0036-8075                               
      PMID   19251630                                                     
      DOI    10.1126/SCIENCE.1167498                                      

>  <REMARK>
   2                                                                      
   2 RESOLUTION.    1.80 ANGSTROMS.                                       
   3                                                                      
   3 REFINEMENT.                                                          
   3   PROGRAM     : REFMAC 5.2.0005                                      
   3   AUTHORS     : MURSHUDOV,SKUBAK,LEBEDEV,PANNU,STEINER,              
   3               : NICHOLLS,WINN,LONG,VAGIN                             
   3                                                                      
   3    REFINEMENT TARGET : MAXIMUM LIKELIHOOD                            
   3                                                                      
   3  DATA USED IN REFINEMENT.                                            
   3   RESOLUTION RANGE HIGH (ANGSTROMS) : 1.80                           
   3   RESOLUTION RANGE LOW  (ANGSTROMS) : 30.83                          
   3   DATA CUTOFF            (SIGMA(F)) : NULL                           
   3   COMPLETENESS FOR RANGE        (%) : 97.6                           
   3   NUMBER OF REFLECTIONS             : 22449                          
   3                                                                      
   3  FIT TO DATA USED IN REFINEMENT.                                     
   3   CROSS-VALIDATION METHOD          : THROUGHOUT                      
   3   FREE R VALUE TEST SET SELECTION  : RANDOM                          
   3   R VALUE     (WORKING + TEST SET) : 0.154                           
   3   R VALUE            (WORKING SET) : 0.152                           
   3   FREE R VALUE                     : 0.192                           
   3   FREE R VALUE TEST SET SIZE   (%) : 4.900                           
   3   FREE R VALUE TEST SET COUNT      : 1165                            
   3                                                                      
   3  FIT IN THE HIGHEST RESOLUTION BIN.                                  
   3   TOTAL NUMBER OF BINS USED           : 20                           
   3   BIN RESOLUTION RANGE HIGH       (A) : 1.80                         
   3   BIN RESOLUTION RANGE LOW        (A) : 1.85                         
   3   REFLECTION IN BIN     (WORKING SET) : 1580                         
   3   BIN COMPLETENESS (WORKING+TEST) (%) : 93.58                        
   3   BIN R VALUE           (WORKING SET) : 0.1940                       
   3   BIN FREE R VALUE SET COUNT          : 82                           
   3   BIN FREE R VALUE                    : 0.2570                       
   3                                                                      
   3  NUMBER OF NON-HYDROGEN ATOMS USED IN REFINEMENT.                    
   3   PROTEIN ATOMS            : 1988                                    
   3   NUCLEIC ACID ATOMS       : 0                                       
   3   HETEROGEN ATOMS          : 36                                      
   3   SOLVENT ATOMS            : 337                                     
   3                                                                      
   3  B VALUES.                                                           
   3   FROM WILSON PLOT           (A**2) : 12.99                          
   3   MEAN B VALUE      (OVERALL, A**2) : 12.99                          
   3   OVERALL ANISOTROPIC B VALUE.                                       
   3    B11 (A**2) : 0.00000                                              
   3    B22 (A**2) : 0.00000                                              
   3    B33 (A**2) : 0.00000                                              
   3    B12 (A**2) : 0.00000                                              
   3    B13 (A**2) : 0.00000                                              
   3    B23 (A**2) : 0.00000                                              
   3                                                                      
   3  ESTIMATED OVERALL COORDINATE ERROR.                                 
   3   ESU BASED ON R VALUE                            (A): 0.120         
   3   ESU BASED ON FREE R VALUE                       (A): 0.115         
   3   ESU BASED ON MAXIMUM LIKELIHOOD                 (A): 0.072         
   3   ESU FOR B VALUES BASED ON MAXIMUM LIKELIHOOD (A**2): 2.266         
   3                                                                      
   3 CORRELATION COEFFICIENTS.                                            
   3   CORRELATION COEFFICIENT FO-FC      : 0.961                         
   3   CORRELATION COEFFICIENT FO-FC FREE : 0.937                         
   3                                                                      
   3  RMS DEVIATIONS FROM IDEAL VALUES        COUNT    RMS    WEIGHT      
   3   BOND LENGTHS REFINED ATOMS        (A):  2061 ; 0.012 ; 0.022       
   3   BOND LENGTHS OTHERS               (A):  NULL ;  NULL ;  NULL       
   3   BOND ANGLES REFINED ATOMS   (DEGREES):  2815 ; 1.432 ; 1.987       
   3   BOND ANGLES OTHERS          (DEGREES):  NULL ;  NULL ;  NULL       
   3   TORSION ANGLES, PERIOD 1    (DEGREES):   262 ; 9.939 ; 5.000       
   3   TORSION ANGLES, PERIOD 2    (DEGREES):    88 ;39.302 ;23.182       
   3   TORSION ANGLES, PERIOD 3    (DEGREES):   303 ;10.896 ;15.000       
   3   TORSION ANGLES, PERIOD 4    (DEGREES):    19 ;19.759 ;15.000       
   3   CHIRAL-CENTER RESTRAINTS       (A**3):   326 ; 0.100 ; 0.200       
   3   GENERAL PLANES REFINED ATOMS      (A):  1576 ; 0.005 ; 0.020       
   3   GENERAL PLANES OTHERS             (A):  NULL ;  NULL ;  NULL       
   3   NON-BONDED CONTACTS REFINED ATOMS (A):  1068 ; 0.229 ; 0.200       
   3   NON-BONDED CONTACTS OTHERS        (A):  NULL ;  NULL ;  NULL       
   3   NON-BONDED TORSION REFINED ATOMS  (A):  1450 ; 0.302 ; 0.200       
   3   NON-BONDED TORSION OTHERS         (A):  NULL ;  NULL ;  NULL       
   3   H-BOND (X...Y) REFINED ATOMS      (A):   245 ; 0.141 ; 0.200       
   3   H-BOND (X...Y) OTHERS             (A):  NULL ;  NULL ;  NULL       
   3   POTENTIAL METAL-ION REFINED ATOMS (A):  NULL ;  NULL ;  NULL       
   3   POTENTIAL METAL-ION OTHERS        (A):  NULL ;  NULL ;  NULL       
   3   SYMMETRY VDW REFINED ATOMS        (A):    59 ; 0.244 ; 0.200       
   3   SYMMETRY VDW OTHERS               (A):  NULL ;  NULL ;  NULL       
   3   SYMMETRY H-BOND REFINED ATOMS     (A):    32 ; 0.148 ; 0.200       
   3   SYMMETRY H-BOND OTHERS            (A):  NULL ;  NULL ;  NULL       
   3   SYMMETRY METAL-ION REFINED ATOMS  (A):  NULL ;  NULL ;  NULL       
   3   SYMMETRY METAL-ION OTHERS         (A):  NULL ;  NULL ;  NULL       
   3                                                                      
   3  ISOTROPIC THERMAL FACTOR RESTRAINTS.     COUNT   RMS    WEIGHT      
   3   MAIN-CHAIN BOND REFINED ATOMS  (A**2):  1350 ; 0.696 ; 1.500       
   3   MAIN-CHAIN BOND OTHER ATOMS    (A**2):  NULL ;  NULL ;  NULL       
   3   MAIN-CHAIN ANGLE REFINED ATOMS (A**2):  2102 ; 1.060 ; 2.000       
   3   MAIN-CHAIN ANGLE OTHER ATOMS   (A**2):  NULL ;  NULL ;  NULL       
   3   SIDE-CHAIN BOND REFINED ATOMS  (A**2):   803 ; 1.951 ; 3.000       
   3   SIDE-CHAIN BOND OTHER ATOMS    (A**2):  NULL ;  NULL ;  NULL       
   3   SIDE-CHAIN ANGLE REFINED ATOMS (A**2):   713 ; 3.086 ; 4.500       
   3   SIDE-CHAIN ANGLE OTHER ATOMS   (A**2):  NULL ;  NULL ;  NULL       
   3   LONG RANGE B REFINED ATOMS     (A**2):  NULL ;  NULL ;  NULL       
   3   LONG RANGE B OTHER ATOMS       (A**2):  NULL ;  NULL ;  NULL       
   3                                                                      
   3 ANISOTROPIC THERMAL FACTOR RESTRAINTS.    COUNT   RMS   WEIGHT       
   3   RIGID-BOND RESTRAINTS          (A**2):  NULL ;  NULL ;  NULL       
   3   SPHERICITY; FREE ATOMS         (A**2):  NULL ;  NULL ;  NULL       
   3   SPHERICITY; BONDED ATOMS       (A**2):  NULL ;  NULL ;  NULL       
   3                                                                      
   3  NCS RESTRAINTS STATISTICS                                           
   3   NUMBER OF DIFFERENT NCS GROUPS : NULL                              
   3                                                                      
   3  TLS DETAILS                                                         
   3   NUMBER OF TLS GROUPS  : NULL                                       
   3                                                                      
   3  BULK SOLVENT MODELLING.                                             
   3   METHOD USED : MASK                                                 
   3   PARAMETERS FOR MASK CALCULATION                                    
   3   VDW PROBE RADIUS   : 1.20                                          
   3   ION PROBE RADIUS   : 0.80                                          
   3   SHRINKAGE RADIUS   : 0.80                                          
   3                                                                      
   3  OTHER REFINEMENT REMARKS: HYDROGENS HAVE BEEN ADDED IN THE RIDING   
   3  POSITIONS                                                           
   4                                                                      
   4 3DWZ COMPLIES WITH FORMAT V. 3.30, 13-JUL-11                         
 100                                                                      
 100 THIS ENTRY HAS BEEN PROCESSED BY RCSB ON 25-JUL-08.                  
 100 THE DEPOSITION ID IS D_1000048593.                                   
 200                                                                      
 200 EXPERIMENTAL DETAILS                                                 
 200  EXPERIMENT TYPE                : X-RAY DIFFRACTION                  
 200  DATE OF DATA COLLECTION        : 12-JUN-08                          
 200  TEMPERATURE           (KELVIN) : 100                                
 200  PH                             : 4.1                                
 200  NUMBER OF CRYSTALS USED        : 1                                  
 200                                                                      
 200  SYNCHROTRON              (Y/N) : Y                                  
 200  RADIATION SOURCE               : NSLS                               
 200  BEAMLINE                       : X12C                               
 200  X-RAY GENERATOR MODEL          : NULL                               
 200  MONOCHROMATIC OR LAUE    (M/L) : M                                  
 200  WAVELENGTH OR RANGE        (A) : 1.1                                
 200  MONOCHROMATOR                  : CHANNEL-CUT SI(111) CRYSTAL        
 200                                   MONOCHROMATOR                      
 200  OPTICS                         : VERTICALLY COLLIMATING MIRROR      
 200                                   AND A DOUBLY FOCUSING TOROIDAL     
 200                                   MIRROR                             
 200                                                                      
 200  DETECTOR TYPE                  : CCD                                
 200  DETECTOR MANUFACTURER          : ADSC QUANTUM 210                   
 200  INTENSITY-INTEGRATION SOFTWARE : HKL-2000                           
 200  DATA SCALING SOFTWARE          : HKL-2000                           
 200                                                                      
 200  NUMBER OF UNIQUE REFLECTIONS   : 23819                              
 200  RESOLUTION RANGE HIGH      (A) : 1.800                              
 200  RESOLUTION RANGE LOW       (A) : 30.830                             
 200  REJECTION CRITERIA  (SIGMA(I)) : -3.000                             
 200                                                                      
 200 OVERALL.                                                             
 200  COMPLETENESS FOR RANGE     (%) : 96.6                               
 200  DATA REDUNDANCY                : 4.000                              
 200  R MERGE                    (I) : 0.10100                            
 200  R SYM                      (I) : NULL                               
 200  <I/SIGMA(I)> FOR THE DATA SET  : 20.0000                            
 200                                                                      
 200 IN THE HIGHEST RESOLUTION SHELL.                                     
 200  HIGHEST RESOLUTION SHELL, RANGE HIGH (A) : 1.80                     
 200  HIGHEST RESOLUTION SHELL, RANGE LOW  (A) : 1.86                     
 200  COMPLETENESS FOR SHELL     (%) : 94.8                               
 200  DATA REDUNDANCY IN SHELL       : 3.90                               
 200  R MERGE FOR SHELL          (I) : 0.41500                            
 200  R SYM FOR SHELL            (I) : NULL                               
 200  <I/SIGMA(I)> FOR SHELL         : 4.500                              
 200                                                                      
 200 DIFFRACTION PROTOCOL: SINGLE WAVELENGTH                              
 200 METHOD USED TO DETERMINE THE STRUCTURE: MOLECULAR REPLACEMENT        
 200 SOFTWARE USED: MOLREP                                                
 200 STARTING MODEL: PDB ENTRY 3CG5                                       
 200                                                                      
 200 REMARK: NULL                                                         
 280                                                                      
 280 CRYSTAL                                                              
 280 SOLVENT CONTENT, VS   (%): 45.10                                     
 280 MATTHEWS COEFFICIENT, VM (ANGSTROMS**3/DA): 2.24                     
 280                                                                      
 280 CRYSTALLIZATION CONDITIONS: 0.1 M HEPES PH 7.4, 2 M AMMONIUM DI      
 280  -HYDROGEN PHOSPHATE, PH 4.1, VAPOR DIFFUSION, HANGING DROP,         
 280  TEMPERATURE 298.0K                                                  
 290                                                                      
 290 CRYSTALLOGRAPHIC SYMMETRY                                            
 290 SYMMETRY OPERATORS FOR SPACE GROUP: P 21 21 21                       
 290                                                                      
 290      SYMOP   SYMMETRY                                                
 290     NNNMMM   OPERATOR                                                
 290       1555   X,Y,Z                                                   
 290       2555   -X+1/2,-Y,Z+1/2                                         
 290       3555   -X,Y+1/2,-Z+1/2                                         
 290       4555   X+1/2,-Y+1/2,-Z                                         
 290                                                                      
 290     WHERE NNN -> OPERATOR NUMBER                                     
 290           MMM -> TRANSLATION VECTOR                                  
 290                                                                      
 290 CRYSTALLOGRAPHIC SYMMETRY TRANSFORMATIONS                            
 290 THE FOLLOWING TRANSFORMATIONS OPERATE ON THE ATOM/HETATM             
 290 RECORDS IN THIS ENTRY TO PRODUCE CRYSTALLOGRAPHICALLY                
 290 RELATED MOLECULES.                                                   
 290   SMTRY1   1  1.000000  0.000000  0.000000        0.00000            
 290   SMTRY2   1  0.000000  1.000000  0.000000        0.00000            
 290   SMTRY3   1  0.000000  0.000000  1.000000        0.00000            
 290   SMTRY1   2 -1.000000  0.000000  0.000000       24.92600            
 290   SMTRY2   2  0.000000 -1.000000  0.000000        0.00000            
 290   SMTRY3   2  0.000000  0.000000  1.000000       37.59400            
 290   SMTRY1   3 -1.000000  0.000000  0.000000        0.00000            
 290   SMTRY2   3  0.000000  1.000000  0.000000       33.79750            
 290   SMTRY3   3  0.000000  0.000000 -1.000000       37.59400            
 290   SMTRY1   4  1.000000  0.000000  0.000000       24.92600            
 290   SMTRY2   4  0.000000 -1.000000  0.000000       33.79750            
 290   SMTRY3   4  0.000000  0.000000 -1.000000        0.00000            
 290                                                                      
 290 REMARK: NULL                                                         
 300                                                                      
 300 BIOMOLECULE: 1                                                       
 300 SEE REMARK 350 FOR THE AUTHOR PROVIDED AND/OR PROGRAM                
 300 GENERATED ASSEMBLY INFORMATION FOR THE STRUCTURE IN                  
 300 THIS ENTRY. THE REMARK MAY ALSO PROVIDE INFORMATION ON               
 300 BURIED SURFACE AREA.                                                 
 350                                                                      
 350 COORDINATES FOR A COMPLETE MULTIMER REPRESENTING THE KNOWN           
 350 BIOLOGICALLY SIGNIFICANT OLIGOMERIZATION STATE OF THE                
 350 MOLECULE CAN BE GENERATED BY APPLYING BIOMT TRANSFORMATIONS          
 350 GIVEN BELOW.  BOTH NON-CRYSTALLOGRAPHIC AND                          
 350 CRYSTALLOGRAPHIC OPERATIONS ARE GIVEN.                               
 350                                                                      
 350 BIOMOLECULE: 1                                                       
 350 AUTHOR DETERMINED BIOLOGICAL UNIT: MONOMERIC                         
 350 SOFTWARE DETERMINED QUATERNARY STRUCTURE: MONOMERIC                  
 350 SOFTWARE USED: PISA                                                  
 350 APPLY THE FOLLOWING TO CHAINS: A                                     
 350   BIOMT1   1  1.000000  0.000000  0.000000        0.00000            
 350   BIOMT2   1  0.000000  1.000000  0.000000        0.00000            
 350   BIOMT3   1  0.000000  0.000000  1.000000        0.00000            
 500                                                                      
 500 GEOMETRY AND STEREOCHEMISTRY                                         
 500 SUBTOPIC: COVALENT BOND LENGTHS                                      
 500                                                                      
 500 THE STEREOCHEMICAL PARAMETERS OF THE FOLLOWING RESIDUES              
 500 HAVE VALUES WHICH DEVIATE FROM EXPECTED VALUES BY MORE               
 500 THAN 6*RMSD (M=MODEL NUMBER; RES=RESIDUE NAME; C=CHAIN               
 500 IDENTIFIER; SSEQ=SEQUENCE NUMBER; I=INSERTION CODE).                 
 500                                                                      
 500 STANDARD TABLE:                                                      
 500 FORMAT: (10X,I3,1X,2(A3,1X,A1,I4,A1,1X,A4,3X),1X,F6.3)               
 500                                                                      
 500 EXPECTED VALUES PROTEIN: ENGH AND HUBER, 1999                        
 500 EXPECTED VALUES NUCLEIC ACID: CLOWNEY ET AL 1996                     
 500                                                                      
 500  M RES CSSEQI ATM1   RES CSSEQI ATM2   DEVIATION                     
 500    GLY A  67   CA    GLY A  67   C      -0.143                       
 500    CYS A  83   C     SER A  84   N       0.199                       
 500    SER A  84   C     SER A  84   O       0.145                       
 500    SER A  84   C     THR A  85   N       0.210                       
 500                                                                      
 500 REMARK: NULL                                                         
 500                                                                      
 500 GEOMETRY AND STEREOCHEMISTRY                                         
 500 SUBTOPIC: COVALENT BOND ANGLES                                       
 500                                                                      
 500 THE STEREOCHEMICAL PARAMETERS OF THE FOLLOWING RESIDUES              
 500 HAVE VALUES WHICH DEVIATE FROM EXPECTED VALUES BY MORE               
 500 THAN 6*RMSD (M=MODEL NUMBER; RES=RESIDUE NAME; C=CHAIN               
 500 IDENTIFIER; SSEQ=SEQUENCE NUMBER; I=INSERTION CODE).                 
 500                                                                      
 500 STANDARD TABLE:                                                      
 500 FORMAT: (10X,I3,1X,A3,1X,A1,I4,A1,3(1X,A4,2X),12X,F5.1)              
 500                                                                      
 500 EXPECTED VALUES PROTEIN: ENGH AND HUBER, 1999                        
 500 EXPECTED VALUES NUCLEIC ACID: CLOWNEY ET AL 1996                     
 500                                                                      
 500  M RES CSSEQI ATM1   ATM2   ATM3                                     
 500    CYS A  83   O   -  C   -  N   ANGL. DEV. = -11.0 DEGREES          
 500                                                                      
 500 REMARK: NULL                                                         
 500                                                                      
 500 GEOMETRY AND STEREOCHEMISTRY                                         
 500 SUBTOPIC: TORSION ANGLES                                             
 500                                                                      
 500 TORSION ANGLES OUTSIDE THE EXPECTED RAMACHANDRAN REGIONS:            
 500 (M=MODEL NUMBER; RES=RESIDUE NAME; C=CHAIN IDENTIFIER;               
 500 SSEQ=SEQUENCE NUMBER; I=INSERTION CODE).                             
 500                                                                      
 500 STANDARD TABLE:                                                      
 500 FORMAT:(10X,I3,1X,A3,1X,A1,I4,A1,4X,F7.2,3X,F7.2)                    
 500                                                                      
 500 EXPECTED VALUES: GJ KLEYWEGT AND TA JONES (1996). PHI/PSI-           
 500 CHOLOGY: RAMACHANDRAN REVISITED. STRUCTURE 4, 1395 - 1400            
 500                                                                      
 500  M RES CSSEQI        PSI       PHI                                   
 500    THR A  66     -150.81   -116.61                                   
 500    CYS A  83     -139.92     39.75                                   
 500    SER A 118       68.48   -152.24                                   
 500    ARG A 236     -122.70   -117.38                                   
 500                                                                      
 500 REMARK: NULL                                                         
 500                                                                      
 500 GEOMETRY AND STEREOCHEMISTRY                                         
 500 SUBTOPIC: MAIN CHAIN PLANARITY                                       
 500                                                                      
 500 THE FOLLOWING RESIDUES HAVE A PSEUDO PLANARITY                       
 500 TORSION ANGLE, C(I) - CA(I) - N(I+1) - O(I), GREATER                 
 500 10.0 DEGREES. (M=MODEL NUMBER; RES=RESIDUE NAME;                     
 500 C=CHAIN IDENTIFIER; SSEQ=SEQUENCE NUMBER;                            
 500 I=INSERTION CODE).                                                   
 500                                                                      
 500  M RES CSSEQI        ANGLE                                           
 500    THR A  66        -13.41                                           
 500                                                                      
 500 REMARK: NULL                                                         
 800                                                                      
 800 SITE                                                                 
 800 SITE_IDENTIFIER: AC1                                                 
 800 EVIDENCE_CODE: SOFTWARE                                              
 800 SITE_DESCRIPTION: BINDING SITE FOR RESIDUE PO4 A 1                   
 800                                                                      
 800 SITE_IDENTIFIER: AC2                                                 
 800 EVIDENCE_CODE: SOFTWARE                                              
 800 SITE_DESCRIPTION: BINDING SITE FOR RESIDUE PO4 A 2                   
 800                                                                      
 800 SITE_IDENTIFIER: AC3                                                 
 800 EVIDENCE_CODE: SOFTWARE                                              
 800 SITE_DESCRIPTION: BINDING SITE FOR RESIDUE DWZ A 400                 
 900                                                                      
 900 RELATED ENTRIES                                                      
 900 RELATED ID: 3CG5   RELATED DB: PDB                                   
 900 COVALENT ADDUCT FORMED BETWEEN TB BETA-LACTAMASE AND CLAVULANATE     

>  <DBREF>
 3DWZ A   43   307  UNP    P0C5C1   BLAC_MYCTU      43    307             

>  <SEQRES>
   1 A  265  ASP LEU ALA ASP ARG PHE ALA GLU LEU GLU ARG ARG TYR          
   2 A  265  ASP ALA ARG LEU GLY VAL TYR VAL PRO ALA THR GLY THR          
   3 A  265  THR ALA ALA ILE GLU TYR ARG ALA ASP GLU ARG PHE ALA          
   4 A  265  PHE CYS SER THR PHE LYS ALA PRO LEU VAL ALA ALA VAL          
   5 A  265  LEU HIS GLN ASN PRO LEU THR HIS LEU ASP LYS LEU ILE          
   6 A  265  THR TYR THR SER ASP ASP ILE ARG SER ILE SER PRO VAL          
   7 A  265  ALA GLN GLN HIS VAL GLN THR GLY MET THR ILE GLY GLN          
   8 A  265  LEU CYS ASP ALA ALA ILE ARG TYR SER ASP GLY THR ALA          
   9 A  265  ALA ASN LEU LEU LEU ALA ASP LEU GLY GLY PRO GLY GLY          
  10 A  265  GLY THR ALA ALA PHE THR GLY TYR LEU ARG SER LEU GLY          
  11 A  265  ASP THR VAL SER ARG LEU ASP ALA GLU GLU PRO GLU LEU          
  12 A  265  ASN ARG ASP PRO PRO GLY ASP GLU ARG ASP THR THR THR          
  13 A  265  PRO HIS ALA ILE ALA LEU VAL LEU GLN GLN LEU VAL LEU          
  14 A  265  GLY ASN ALA LEU PRO PRO ASP LYS ARG ALA LEU LEU THR          
  15 A  265  ASP TRP MET ALA ARG ASN THR THR GLY ALA LYS ARG ILE          
  16 A  265  ARG ALA GLY PHE PRO ALA ASP TRP LYS VAL ILE ASP LYS          
  17 A  265  THR GLY THR GLY ASP TYR GLY ARG ALA ASN ASP ILE ALA          
  18 A  265  VAL VAL TRP SER PRO THR GLY VAL PRO TYR VAL VAL ALA          
  19 A  265  VAL MET SER ASP ARG ALA GLY GLY GLY TYR ASP ALA GLU          
  20 A  265  PRO ARG GLU ALA LEU LEU ALA GLU ALA ALA THR CYS VAL          
  21 A  265  ALA GLY VAL LEU ALA                                          

>  <HET>
 PO4  A   1       5                                                       
 PO4  A   2       5                                                       
 DWZ  A 400      26                                                       

>  <HETNAM>
     PO4 PHOSPHATE ION                                                    
     DWZ (2S,3R,4S)-4-{[(3S,5S)-5-(DIMETHYLCARBAMOYL)PYRROLIDIN-          
   2 DWZ  3-YL]SULFANYL}-2-[(2S,3R)-3-HYDROXY-1-OXOBUTAN-2-YL]-           
   3 DWZ  3-METHYL-3,4-DIHYDRO-2H-PYRROLE-5-CARBOXYLIC ACID               

>  <HETSYN>
     DWZ MEROPENEM, BOUND FORM                                            

>  <FORMUL>
   2  PO4    2(O4 P 3-)                                                   
   4  DWZ    C17 H27 N3 O5 S                                              
   5  HOH   *337(H2 O)                                                    

>  <HELIX>
   1   1 ASP A   43  TYR A   55  1                                  13    
   2   2 CYS A   83  THR A   85  5                                   3    
   3   3 PHE A   86  ASN A   98  1                                  13    
   4   4 PRO A   99  ASP A  104  5                                   6    
   5   5 THR A  110  ILE A  114  5                                   5    
   6   6 VAL A  120  HIS A  124  5                                   5    
   7   7 ILE A  131  TYR A  141  1                                  11    
   8   8 ASP A  143  GLY A  155  1                                  13    
   9   9 PRO A  157  GLY A  159  5                                   3    
  10  10 GLY A  160  LEU A  171  1                                  12    
  11  11 PRO A  183  ARG A  187  5                                   5    
  12  12 THR A  198  LEU A  211  1                                  14    
  13  13 PRO A  216  ARG A  229  1                                  14    
  14  14 ARG A  236  PHE A  241  1                                   6    
  15  15 ARG A  281  GLY A  285  5                                   5    
  16  16 ARG A  291  ALA A  307  1                                  17    

>  <SHEET>
   1   A 5 ILE A  72  TYR A  74  0                                        
   2   A 5 ARG A  58  VAL A  63 -1  N  VAL A  61   O  TYR A  74           
   3   A 5 PRO A 272  ASP A 280 -1  O  MET A 278   N  GLY A  60           
   4   A 5 ARG A 258  TRP A 266 -1  N  ASP A 261   O  VAL A 277           
   5   A 5 LYS A 246  GLY A 254 -1  N  GLY A 252   O  ASN A 260           
   1   B 2 PHE A  80  ALA A  81  0                                        
   2   B 2 THR A 196  THR A 197 -1  O  THR A 197   N  PHE A  80           
   1   C 2 LEU A 106  ILE A 107  0                                        
   2   C 2 MET A 129  THR A 130 -1  O  MET A 129   N  ILE A 107           

>  <LINK>
       OG  SER A  84                 CAA DWZ A 400     1555   1555  1.36  

>  <CISPEP>
   1 GLU A  182    PRO A  183          0        -1.97                     

>  <SITE>
   1 AC1  8 ARG A  79  ARG A 187  GLU A 193  ASP A 255                    
   2 AC1  8 TYR A 286  HOH A 419  HOH A 649  HOH A 735                    
   1 AC2  8 ARG A  75  GLU A  78  GLU A 184  HOH A 425                    
   2 AC2  8 HOH A 433  HOH A 604  HOH A 612  HOH A 725                    
   1 AC3 13 CYS A  83  SER A  84  LYS A  87  ILE A 117                    
   2 AC3 13 SER A 142  GLU A 182  THR A 251  GLY A 252                    
   3 AC3 13 THR A 253  HOH A 520  HOH A 572  HOH A 603                    
   4 AC3 13 HOH A 662                                                     

>  <ORIGX1>
      1.000000  0.000000  0.000000        0.00000                         

>  <ORIGX2>
      0.000000  1.000000  0.000000        0.00000                         

>  <ORIGX3>
      0.000000  0.000000  1.000000        0.00000                         

>  <SCALE1>
      0.020059  0.000000  0.000000        0.00000                         

>  <SCALE2>
      0.000000  0.014794  0.000000        0.00000                         

>  <SCALE3>
      0.000000  0.000000  0.013300        0.00000                         

>  <MASTER>
      333    0    3   16    9    0    8    6 2361    1   37   21          

$$$$
