start_structures/Ligand_Substrate/Ligand_Complex_Stripped/ETP_1GA9.pdb
 OpenBabel08222315203D

 33 35  0  0  1  0  0  0  0  0999 V2000
   27.2780    1.4370   16.1840 N   0  0  0  0  0  0  0  0  0  0  0  0
   28.6310    1.8990   16.4700 C   0  0  2  0  0  0  0  0  0  0  0  0
   29.5170    0.9810   17.3130 C   0  0  0  0  0  0  0  0  0  0  0  0
   30.7060    1.2690   17.4870 O   0  0  0  0  0  0  0  0  0  0  0  0
   28.5800    3.2890   17.0570 C   0  0  0  0  0  0  0  0  0  0  0  0
   28.1560    4.1320   15.9960 O   0  0  0  0  0  0  0  0  0  0  0  0
   26.7620    4.8970   16.3880 B   0  0  0  0  0  0  0  0  0  0  0  0
   25.7110    3.8660   16.7220 O   0  0  0  0  0  0  0  0  0  0  0  0
   27.0100    5.7500   17.5590 O   0  0  0  0  0  0  0  0  0  0  0  0
   26.2640    5.8100   15.1730 C   0  0  0  0  0  0  0  0  0  0  0  0
   25.9200    5.2430   13.9180 C   0  0  0  0  0  0  0  0  0  0  0  0
   25.3620    6.0620   12.8890 C   0  0  0  0  0  0  0  0  0  0  0  0
   24.9320    5.4810   11.5860 N   0  0  0  0  0  0  0  0  0  0  0  0
   25.1620    7.4400   13.1240 C   0  0  0  0  0  0  0  0  0  0  0  0
   25.5040    8.0130   14.3480 C   0  0  0  0  0  0  0  0  0  0  0  0
   26.0570    7.2030   15.3740 C   0  0  0  0  0  0  0  0  0  0  0  0
   23.5540    4.4990   11.4300 S   0  0  0  0  0  0  0  0  0  0  0  0
   23.6900    3.3850   12.3890 O   0  0  0  0  0  0  0  0  0  0  0  0
   23.0900    4.3340   10.1060 O   0  0  0  0  0  0  0  0  0  0  0  0
   21.1630    6.4410   11.1290 S   0  0  0  0  0  0  0  0  0  0  0  0
   20.3820    7.0000   12.6240 C   0  0  0  0  0  0  0  0  0  0  0  0
   20.9390    6.4850   13.7420 C   0  0  0  0  0  0  0  0  0  0  0  0
   22.0490    5.5730   13.4700 C   0  0  0  0  0  0  0  0  0  0  0  0
   22.2730    5.4670   12.1420 C   0  0  0  0  0  0  0  0  0  0  0  0
   20.4500    6.9110   15.3600 S   0  0  0  0  0  0  0  0  0  0  0  0
   19.0880    7.2290   15.4500 O   0  0  0  0  0  0  0  0  0  0  0  0
   21.1590    6.0370   16.3140 O   0  0  0  0  0  0  0  0  0  0  0  0
   21.2220    8.4710   15.6220 C   0  0  0  0  0  0  0  0  0  0  0  0
   22.2980    8.5920   16.5420 C   0  0  0  0  0  0  0  0  0  0  0  0
   22.9550    9.8310   16.7090 C   0  0  0  0  0  0  0  0  0  0  0  0
   22.5410   10.9640   15.9570 C   0  0  0  0  0  0  0  0  0  0  0  0
   21.4730   10.8590   15.0440 C   0  0  0  0  0  0  0  0  0  0  0  0
   20.8100    9.6210   14.8740 C   0  0  0  0  0  0  0  0  0  0  0  0
  2  1  1  1  0  0  0
  2  5  1  0  0  0  0
  2  3  1  0  0  0  0
  3  4  2  0  0  0  0
  6  7  1  0  0  0  0
  6  5  1  0  0  0  0
  7  8  1  0  0  0  0
  7  9  1  0  0  0  0
  7 10  1  0  0  0  0
 10 11  2  0  0  0  0
 10 16  1  0  0  0  0
 11 12  1  0  0  0  0
 12 13  1  0  0  0  0
 12 14  2  0  0  0  0
 13 17  1  0  0  0  0
 14 15  1  0  0  0  0
 15 16  2  0  0  0  0
 17 18  2  0  0  0  0
 17 19  2  0  0  0  0
 17 24  1  0  0  0  0
 20 21  1  0  0  0  0
 20 24  1  0  0  0  0
 21 22  2  0  0  0  0
 22 23  1  0  0  0  0
 22 25  1  0  0  0  0
 23 24  2  0  0  0  0
 25 26  2  0  0  0  0
 25 27  2  0  0  0  0
 25 28  1  0  0  0  0
 28 29  2  0  0  0  0
 28 33  1  0  0  0  0
 29 30  1  0  0  0  0
 30 31  2  0  0  0  0
 31 32  1  0  0  0  0
 32 33  2  0  0  0  0
M  END
>  <HEADER>
    HYDROLASE                               29-NOV-00   1GA9              

>  <TITLE>
    CRYSTAL STRUCTURE OF AMPC BETA-LACTAMASE FROM E. COLI COMPLEXED WITH  
   2 NON-BETA-LACTAMASE INHIBITOR (2, 3-(4-BENZENESULFONYL-THIOPHENE-2-   
   3 SULFONYLAMINO)-PHENYLBORONIC ACID)                                   

>  <COMPND>
    MOL_ID: 1;                                                            
   2 MOLECULE: BETA-LACTAMASE;                                            
   3 CHAIN: A, B;                                                         
   4 FRAGMENT: BETA-LACTAMASE (RESIDUES 20-377);                          
   5 SYNONYM: CEPHALOSPORINASE;                                           
   6 EC: 3.5.2.6;                                                         
   7 ENGINEERED: YES                                                      

>  <SOURCE>
    MOL_ID: 1;                                                            
   2 ORGANISM_SCIENTIFIC: ESCHERICHIA COLI;                               
   3 ORGANISM_TAXID: 562;                                                 
   4 EXPRESSION_SYSTEM: ESCHERICHIA COLI;                                 
   5 EXPRESSION_SYSTEM_TAXID: 562;                                        
   6 EXPRESSION_SYSTEM_STRAIN: JM109;                                     
   7 EXPRESSION_SYSTEM_VECTOR_TYPE: PLASMID;                              
   8 EXPRESSION_SYSTEM_PLASMID: POGO295                                   

>  <KEYWDS>
    CEPHALOSPORINASE, BETA-LACTAMASE, SERINE HYDROLASE, HYDROLASE         

>  <EXPDTA>
    X-RAY DIFFRACTION                                                     

>  <AUTHOR>
    D.TONDI,R.A.POWERS,E.CASELLI,M.C.NEGRI,J.BLAZQUEZ,M.P.COSTI,          
   2 B.K.SHOICHET                                                         

>  <REVDAT>
   3   09-AUG-23 1GA9    1       REMARK LINK                              
   2   24-FEB-09 1GA9    1       VERSN                                    
   1   25-JUL-01 1GA9    0                                                

>  <JRNL>
      AUTH   D.TONDI,R.A.POWERS,E.CASELLI,M.C.NEGRI,J.BLAZQUEZ,M.P.COSTI, 
      AUTH 2 B.K.SHOICHET                                                 
      TITL   STRUCTURE-BASED DESIGN AND IN-PARALLEL SYNTHESIS OF          
      TITL 2 INHIBITORS OF AMPC BETA-LACTAMASE.                           
      REF    CHEM.BIOL.                    V.   8   593 2001              
      REFN                   ISSN 1074-5521                               
      PMID   11410378                                                     
      DOI    10.1016/S1074-5521(01)00034-5                                

>  <REMARK>
   2                                                                      
   2 RESOLUTION.    2.10 ANGSTROMS.                                       
   3                                                                      
   3 REFINEMENT.                                                          
   3   PROGRAM     : CNS                                                  
   3   AUTHORS     : BRUNGER,ADAMS,CLORE,DELANO,GROS,GROSSE-              
   3               : KUNSTLEVE,JIANG,KUSZEWSKI,NILGES,PANNU,              
   3               : READ,RICE,SIMONSON,WARREN                            
   3                                                                      
   3  REFINEMENT TARGET : ENGH & HUBER                                    
   3                                                                      
   3  DATA USED IN REFINEMENT.                                            
   3   RESOLUTION RANGE HIGH (ANGSTROMS) : 2.10                           
   3   RESOLUTION RANGE LOW  (ANGSTROMS) : 20.00                          
   3   DATA CUTOFF            (SIGMA(F)) : 2.000                          
   3   DATA CUTOFF HIGH         (ABS(F)) : NULL                           
   3   DATA CUTOFF LOW          (ABS(F)) : NULL                           
   3   COMPLETENESS (WORKING+TEST)   (%) : 85.3                           
   3   NUMBER OF REFLECTIONS             : 40286                          
   3                                                                      
   3  FIT TO DATA USED IN REFINEMENT.                                     
   3   CROSS-VALIDATION METHOD          : NULL                            
   3   FREE R VALUE TEST SET SELECTION  : RANDOM                          
   3   R VALUE            (WORKING SET) : 0.206                           
   3   FREE R VALUE                     : 0.249                           
   3   FREE R VALUE TEST SET SIZE   (%) : NULL                            
   3   FREE R VALUE TEST SET COUNT      : 2050                            
   3   ESTIMATED ERROR OF FREE R VALUE  : NULL                            
   3                                                                      
   3  FIT IN THE HIGHEST RESOLUTION BIN.                                  
   3   TOTAL NUMBER OF BINS USED           : NULL                         
   3   BIN RESOLUTION RANGE HIGH       (A) : 2.10                         
   3   BIN RESOLUTION RANGE LOW        (A) : 2.20                         
   3   BIN COMPLETENESS (WORKING+TEST) (%) : NULL                         
   3   REFLECTIONS IN BIN    (WORKING SET) : NULL                         
   3   BIN R VALUE           (WORKING SET) : 0.4550                       
   3   BIN FREE R VALUE                    : 0.2720                       
   3   BIN FREE R VALUE TEST SET SIZE  (%) : NULL                         
   3   BIN FREE R VALUE TEST SET COUNT     : 238                          
   3   ESTIMATED ERROR OF BIN FREE R VALUE : NULL                         
   3                                                                      
   3  NUMBER OF NON-HYDROGEN ATOMS USED IN REFINEMENT.                    
   3   PROTEIN ATOMS            : 5457                                    
   3   NUCLEIC ACID ATOMS       : 0                                       
   3   HETEROGEN ATOMS          : 65                                      
   3   SOLVENT ATOMS            : 318                                     
   3                                                                      
   3  B VALUES.                                                           
   3   FROM WILSON PLOT           (A**2) : 27.89                          
   3   MEAN B VALUE      (OVERALL, A**2) : NULL                           
   3   OVERALL ANISOTROPIC B VALUE.                                       
   3    B11 (A**2) : NULL                                                 
   3    B22 (A**2) : NULL                                                 
   3    B33 (A**2) : NULL                                                 
   3    B12 (A**2) : NULL                                                 
   3    B13 (A**2) : NULL                                                 
   3    B23 (A**2) : NULL                                                 
   3                                                                      
   3  ESTIMATED COORDINATE ERROR.                                         
   3   ESD FROM LUZZATI PLOT        (A) : 0.27                            
   3   ESD FROM SIGMAA              (A) : NULL                            
   3   LOW RESOLUTION CUTOFF        (A) : 5.00                            
   3                                                                      
   3  CROSS-VALIDATED ESTIMATED COORDINATE ERROR.                         
   3   ESD FROM C-V LUZZATI PLOT    (A) : NULL                            
   3   ESD FROM C-V SIGMAA          (A) : NULL                            
   3                                                                      
   3  RMS DEVIATIONS FROM IDEAL VALUES.                                   
   3   BOND LENGTHS                 (A) : 0.013                           
   3   BOND ANGLES            (DEGREES) : 1.650                           
   3   DIHEDRAL ANGLES        (DEGREES) : NULL                            
   3   IMPROPER ANGLES        (DEGREES) : NULL                            
   3                                                                      
   3  ISOTROPIC THERMAL MODEL : NULL                                      
   3                                                                      
   3  ISOTROPIC THERMAL FACTOR RESTRAINTS.    RMS    SIGMA                
   3   MAIN-CHAIN BOND              (A**2) : NULL  ; NULL                 
   3   MAIN-CHAIN ANGLE             (A**2) : NULL  ; NULL                 
   3   SIDE-CHAIN BOND              (A**2) : NULL  ; NULL                 
   3   SIDE-CHAIN ANGLE             (A**2) : NULL  ; NULL                 
   3                                                                      
   3  BULK SOLVENT MODELING.                                              
   3   METHOD USED : NULL                                                 
   3   KSOL        : NULL                                                 
   3   BSOL        : NULL                                                 
   3                                                                      
   3  NCS MODEL : NULL                                                    
   3                                                                      
   3  NCS RESTRAINTS.                         RMS   SIGMA/WEIGHT          
   3   GROUP  1  POSITIONAL            (A) : NULL  ; NULL                 
   3   GROUP  1  B-FACTOR           (A**2) : NULL  ; NULL                 
   3                                                                      
   3  PARAMETER FILE  1  : NULL                                           
   3  TOPOLOGY FILE  1   : NULL                                           
   3                                                                      
   3  OTHER REFINEMENT REMARKS: NULL                                      
   4                                                                      
   4 1GA9 COMPLIES WITH FORMAT V. 3.30, 13-JUL-11                         
 100                                                                      
 100 THIS ENTRY HAS BEEN PROCESSED BY RCSB ON 05-DEC-00.                  
 100 THE DEPOSITION ID IS D_1000012428.                                   
 200                                                                      
 200 EXPERIMENTAL DETAILS                                                 
 200  EXPERIMENT TYPE                : X-RAY DIFFRACTION                  
 200  DATE OF DATA COLLECTION        : 16-MAY-00                          
 200  TEMPERATURE           (KELVIN) : 100                                
 200  PH                             : 7.0                                
 200  NUMBER OF CRYSTALS USED        : 1                                  
 200                                                                      
 200  SYNCHROTRON              (Y/N) : Y                                  
 200  RADIATION SOURCE               : APS                                
 200  BEAMLINE                       : 5ID-B                              
 200  X-RAY GENERATOR MODEL          : NULL                               
 200  MONOCHROMATIC OR LAUE    (M/L) : M                                  
 200  WAVELENGTH OR RANGE        (A) : 1.0                                
 200  MONOCHROMATOR                  : NULL                               
 200  OPTICS                         : NULL                               
 200                                                                      
 200  DETECTOR TYPE                  : CCD                                
 200  DETECTOR MANUFACTURER          : MARRESEARCH                        
 200  INTENSITY-INTEGRATION SOFTWARE : DENZO                              
 200  DATA SCALING SOFTWARE          : SCALEPACK                          
 200                                                                      
 200  NUMBER OF UNIQUE REFLECTIONS   : 156406                             
 200  RESOLUTION RANGE HIGH      (A) : 2.100                              
 200  RESOLUTION RANGE LOW       (A) : 20.000                             
 200  REJECTION CRITERIA  (SIGMA(I)) : -3.000                             
 200                                                                      
 200 OVERALL.                                                             
 200  COMPLETENESS FOR RANGE     (%) : 89.8                               
 200  DATA REDUNDANCY                : 3.700                              
 200  R MERGE                    (I) : 0.07300                            
 200  R SYM                      (I) : NULL                               
 200  <I/SIGMA(I)> FOR THE DATA SET  : 25.2000                            
 200                                                                      
 200 IN THE HIGHEST RESOLUTION SHELL.                                     
 200  HIGHEST RESOLUTION SHELL, RANGE HIGH (A) : 2.10                     
 200  HIGHEST RESOLUTION SHELL, RANGE LOW  (A) : 2.18                     
 200  COMPLETENESS FOR SHELL     (%) : 96.0                               
 200  DATA REDUNDANCY IN SHELL       : NULL                               
 200  R MERGE FOR SHELL          (I) : 0.17900                            
 200  R SYM FOR SHELL            (I) : NULL                               
 200  <I/SIGMA(I)> FOR SHELL         : NULL                               
 200                                                                      
 200 DIFFRACTION PROTOCOL: SINGLE WAVELENGTH                              
 200 METHOD USED TO DETERMINE THE STRUCTURE: MOLECULAR REPLACEMENT        
 200 SOFTWARE USED: CNS                                                   
 200 STARTING MODEL: PDB ENTRY 1C3B                                       
 200                                                                      
 200 REMARK: NULL                                                         
 280                                                                      
 280 CRYSTAL                                                              
 280 SOLVENT CONTENT, VS   (%): 52.44                                     
 280 MATTHEWS COEFFICIENT, VM (ANGSTROMS**3/DA): 2.59                     
 280                                                                      
 280 CRYSTALLIZATION CONDITIONS: 1.7 M POTASSIUM PHOSPHATE, 95 UM AMPC,   
 280  600 UM COMPOUND 2 (ET011), PH 7.0, VAPOR DIFFUSION, HANGING DROP,   
 280  TEMPERATURE 296K                                                    
 290                                                                      
 290 CRYSTALLOGRAPHIC SYMMETRY                                            
 290 SYMMETRY OPERATORS FOR SPACE GROUP: C 1 2 1                          
 290                                                                      
 290      SYMOP   SYMMETRY                                                
 290     NNNMMM   OPERATOR                                                
 290       1555   X,Y,Z                                                   
 290       2555   -X,Y,-Z                                                 
 290       3555   X+1/2,Y+1/2,Z                                           
 290       4555   -X+1/2,Y+1/2,-Z                                         
 290                                                                      
 290     WHERE NNN -> OPERATOR NUMBER                                     
 290           MMM -> TRANSLATION VECTOR                                  
 290                                                                      
 290 CRYSTALLOGRAPHIC SYMMETRY TRANSFORMATIONS                            
 290 THE FOLLOWING TRANSFORMATIONS OPERATE ON THE ATOM/HETATM             
 290 RECORDS IN THIS ENTRY TO PRODUCE CRYSTALLOGRAPHICALLY                
 290 RELATED MOLECULES.                                                   
 290   SMTRY1   1  1.000000  0.000000  0.000000        0.00000            
 290   SMTRY2   1  0.000000  1.000000  0.000000        0.00000            
 290   SMTRY3   1  0.000000  0.000000  1.000000        0.00000            
 290   SMTRY1   2 -1.000000  0.000000  0.000000        0.00000            
 290   SMTRY2   2  0.000000  1.000000  0.000000        0.00000            
 290   SMTRY3   2  0.000000  0.000000 -1.000000        0.00000            
 290   SMTRY1   3  1.000000  0.000000  0.000000       59.49500            
 290   SMTRY2   3  0.000000  1.000000  0.000000       39.03000            
 290   SMTRY3   3  0.000000  0.000000  1.000000        0.00000            
 290   SMTRY1   4 -1.000000  0.000000  0.000000       59.49500            
 290   SMTRY2   4  0.000000  1.000000  0.000000       39.03000            
 290   SMTRY3   4  0.000000  0.000000 -1.000000        0.00000            
 290                                                                      
 290 REMARK: NULL                                                         
 300                                                                      
 300 BIOMOLECULE: 1, 2                                                    
 300 SEE REMARK 350 FOR THE AUTHOR PROVIDED AND/OR PROGRAM                
 300 GENERATED ASSEMBLY INFORMATION FOR THE STRUCTURE IN                  
 300 THIS ENTRY. THE REMARK MAY ALSO PROVIDE INFORMATION ON               
 300 BURIED SURFACE AREA.                                                 
 350                                                                      
 350 COORDINATES FOR A COMPLETE MULTIMER REPRESENTING THE KNOWN           
 350 BIOLOGICALLY SIGNIFICANT OLIGOMERIZATION STATE OF THE                
 350 MOLECULE CAN BE GENERATED BY APPLYING BIOMT TRANSFORMATIONS          
 350 GIVEN BELOW.  BOTH NON-CRYSTALLOGRAPHIC AND                          
 350 CRYSTALLOGRAPHIC OPERATIONS ARE GIVEN.                               
 350                                                                      
 350 BIOMOLECULE: 1                                                       
 350 AUTHOR DETERMINED BIOLOGICAL UNIT: MONOMERIC                         
 350 APPLY THE FOLLOWING TO CHAINS: A                                     
 350   BIOMT1   1  1.000000  0.000000  0.000000        0.00000            
 350   BIOMT2   1  0.000000  1.000000  0.000000        0.00000            
 350   BIOMT3   1  0.000000  0.000000  1.000000        0.00000            
 350                                                                      
 350 BIOMOLECULE: 2                                                       
 350 AUTHOR DETERMINED BIOLOGICAL UNIT: MONOMERIC                         
 350 APPLY THE FOLLOWING TO CHAINS: B                                     
 350   BIOMT1   1  1.000000  0.000000  0.000000        0.00000            
 350   BIOMT2   1  0.000000  1.000000  0.000000        0.00000            
 350   BIOMT3   1  0.000000  0.000000  1.000000        0.00000            
 465                                                                      
 465 MISSING RESIDUES                                                     
 465 THE FOLLOWING RESIDUES WERE NOT LOCATED IN THE                       
 465 EXPERIMENT. (M=MODEL NUMBER; RES=RESIDUE NAME; C=CHAIN               
 465 IDENTIFIER; SSSEQ=SEQUENCE NUMBER; I=INSERTION CODE.)                
 465                                                                      
 465   M RES C SSSEQI                                                     
 465     ALA B    46                                                      
 465     ASP B    47                                                      
 465     ILE B    48                                                      
 465     GLU B   205                                                      
 465     GLY B   206                                                      
 465     LYS B   207                                                      
 470                                                                      
 470 MISSING ATOM                                                         
 470 THE FOLLOWING RESIDUES HAVE MISSING ATOMS (M=MODEL NUMBER;           
 470 RES=RESIDUE NAME; C=CHAIN IDENTIFIER; SSEQ=SEQUENCE NUMBER;          
 470 I=INSERTION CODE):                                                   
 470   M RES CSSEQI  ATOMS                                                
 470     ASP A  10    CG   OD1  OD2                                       
 470     GLN A  22    CG   CD   OE1  NE2                                  
 470     LYS A  37    CG   CD   CE   NZ                                   
 470     LYS A  99    CG   CD   CE   NZ                                   
 470     ASP A 123    CG   OD1  OD2                                       
 470     LYS A 207    CG   CD   CE   NZ                                   
 470     ASN A 244    CG   OD1  ND2                                       
 470     LYS A 246    CG   CD   CE   NZ                                   
 470     LYS A 290    CG   CD   CE   NZ                                   
 470     ARG A 309    CG   CD   NE   CZ   NH1  NH2                        
 470     GLN A 361    CG   CD   OE1  NE2                                  
 470     GLN B   7    CG   CD   OE1  NE2                                  
 470     THR B  17    OG1  CG2                                            
 470     LEU B  19    CG   CD1  CD2                                       
 470     LYS B  24    CG   CD   CE   NZ                                   
 470     ILE B  25    CG1  CG2  CD1                                       
 470     LYS B  37    CG   CD   CE   NZ                                   
 470     LYS B  50    CG   CD   CE   NZ                                   
 470     GLN B  52    CG   CD   OE1  NE2                                  
 470     VAL B  54    CG1  CG2                                            
 470     GLN B  56    CG   CD   OE1  NE2                                  
 470     GLN B  57    CG   CD   OE1  NE2                                  
 470     GLU B 196    CG   CD   OE1  OE2                                  
 470     LYS B 239    CG   CD   CE   NZ                                   
 470     ASN B 244    CG   OD1  ND2                                       
 470     LYS B 246    CG   CD   CE   NZ                                   
 470     GLU B 331    CG   CD   OE1  OE2                                  
 500                                                                      
 500 GEOMETRY AND STEREOCHEMISTRY                                         
 500 SUBTOPIC: COVALENT BOND ANGLES                                       
 500                                                                      
 500 THE STEREOCHEMICAL PARAMETERS OF THE FOLLOWING RESIDUES              
 500 HAVE VALUES WHICH DEVIATE FROM EXPECTED VALUES BY MORE               
 500 THAN 6*RMSD (M=MODEL NUMBER; RES=RESIDUE NAME; C=CHAIN               
 500 IDENTIFIER; SSEQ=SEQUENCE NUMBER; I=INSERTION CODE).                 
 500                                                                      
 500 STANDARD TABLE:                                                      
 500 FORMAT: (10X,I3,1X,A3,1X,A1,I4,A1,3(1X,A4,2X),12X,F5.1)              
 500                                                                      
 500 EXPECTED VALUES PROTEIN: ENGH AND HUBER, 1999                        
 500 EXPECTED VALUES NUCLEIC ACID: CLOWNEY ET AL 1996                     
 500                                                                      
 500  M RES CSSEQI ATM1   ATM2   ATM3                                     
 500    PRO B 345   C   -  N   -  CA  ANGL. DEV. =   9.3 DEGREES          
 500                                                                      
 500 REMARK: NULL                                                         
 500                                                                      
 500 GEOMETRY AND STEREOCHEMISTRY                                         
 500 SUBTOPIC: TORSION ANGLES                                             
 500                                                                      
 500 TORSION ANGLES OUTSIDE THE EXPECTED RAMACHANDRAN REGIONS:            
 500 (M=MODEL NUMBER; RES=RESIDUE NAME; C=CHAIN IDENTIFIER;               
 500 SSEQ=SEQUENCE NUMBER; I=INSERTION CODE).                             
 500                                                                      
 500 STANDARD TABLE:                                                      
 500 FORMAT:(10X,I3,1X,A3,1X,A1,I4,A1,4X,F7.2,3X,F7.2)                    
 500                                                                      
 500 EXPECTED VALUES: GJ KLEYWEGT AND TA JONES (1996). PHI/PSI-           
 500 CHOLOGY: RAMACHANDRAN REVISITED. STRUCTURE 4, 1395 - 1400            
 500                                                                      
 500  M RES CSSEQI        PSI       PHI                                   
 500    TRP A  93       69.59   -151.87                                   
 500    LYS A 126      -53.22   -125.24                                   
 500    SER A 154      -64.47    -91.64                                   
 500    VAL A 178      -59.48   -125.41                                   
 500    TYR A 221       23.62   -162.10                                   
 500    ALA A 307      121.80    -33.61                                   
 500    LYS A 315      129.37   -171.45                                   
 500    ASN A 341       51.99    -97.83                                   
 500    PRO B   5      157.13    -49.67                                   
 500    LYS B  24       55.23     77.29                                   
 500    LYS B 126      -60.02   -125.71                                   
 500    VAL B 178      -68.17   -120.06                                   
 500    ALA B 194       -9.90    -55.31                                   
 500    LYS B 197       -7.08    -54.79                                   
 500    TYR B 221       11.11   -161.43                                   
 500    PRO B 304      151.65    -49.24                                   
 500    ALA B 307      120.66    -30.22                                   
 500    PRO B 345      126.44    -34.12                                   
 500                                                                      
 500 REMARK: NULL                                                         
 620                                                                      
 620 METAL COORDINATION                                                   
 620 (M=MODEL NUMBER; RES=RESIDUE NAME; C=CHAIN IDENTIFIER;               
 620 SSEQ=SEQUENCE NUMBER; I=INSERTION CODE):                             
 620                                                                      
 620 COORDINATION ANGLES FOR:  M RES CSSEQI METAL                         
 620                               K B   3   K                            
 620 N RES CSSEQI ATOM                                                    
 620 1 HOH A 485   O                                                      
 620 2 HOH A 565   O    67.6                                              
 620 3 HOH B 443   O   136.8  72.2                                        
 620 4 HOH B 656   O   153.1 139.1  69.2                                  
 620 N                    1     2     3                                   
 800                                                                      
 800 SITE                                                                 
 800 SITE_IDENTIFIER: AC1                                                 
 800 EVIDENCE_CODE: SOFTWARE                                              
 800 SITE_DESCRIPTION: BINDING SITE FOR RESIDUE PO4 A 1                   
 800                                                                      
 800 SITE_IDENTIFIER: AC2                                                 
 800 EVIDENCE_CODE: SOFTWARE                                              
 800 SITE_DESCRIPTION: BINDING SITE FOR RESIDUE PO4 A 2                   
 800                                                                      
 800 SITE_IDENTIFIER: AC3                                                 
 800 EVIDENCE_CODE: SOFTWARE                                              
 800 SITE_DESCRIPTION: BINDING SITE FOR RESIDUE K B 3                     
 800                                                                      
 800 SITE_IDENTIFIER: AC4                                                 
 800 EVIDENCE_CODE: SOFTWARE                                              
 800 SITE_DESCRIPTION: BINDING SITE FOR RESIDUE ETP A 964                 
 800                                                                      
 800 SITE_IDENTIFIER: AC5                                                 
 800 EVIDENCE_CODE: SOFTWARE                                              
 800 SITE_DESCRIPTION: BINDING SITE FOR RESIDUE ETP B 964                 
 900                                                                      
 900 RELATED ENTRIES                                                      
 900 RELATED ID: 2BLS   RELATED DB: PDB                                   
 900 2BLS CONTAINS THE SAME PROTEIN                                       
 900 RELATED ID: 3BLS   RELATED DB: PDB                                   
 900 3BLS CONTAINS THE SAME PROTEIN                                       
 900 RELATED ID: 1C3B   RELATED DB: PDB                                   
 900 1C3B CONTAINS THE SAME PROTEIN                                       

>  <DBREF>
 1GA9 A    4   361  UNP    P00811   AMPC_ECOLI      20    377             
 1GA9 B    4   361  UNP    P00811   AMPC_ECOLI      20    377             

>  <SEQRES>
   1 A  358  ALA PRO GLN GLN ILE ASN ASP ILE VAL HIS ARG THR ILE          
   2 A  358  THR PRO LEU ILE GLU GLN GLN LYS ILE PRO GLY MET ALA          
   3 A  358  VAL ALA VAL ILE TYR GLN GLY LYS PRO TYR TYR PHE THR          
   4 A  358  TRP GLY TYR ALA ASP ILE ALA LYS LYS GLN PRO VAL THR          
   5 A  358  GLN GLN THR LEU PHE GLU LEU GLY SER VAL SER LYS THR          
   6 A  358  PHE THR GLY VAL LEU GLY GLY ASP ALA ILE ALA ARG GLY          
   7 A  358  GLU ILE LYS LEU SER ASP PRO THR THR LYS TYR TRP PRO          
   8 A  358  GLU LEU THR ALA LYS GLN TRP ASN GLY ILE THR LEU LEU          
   9 A  358  HIS LEU ALA THR TYR THR ALA GLY GLY LEU PRO LEU GLN          
  10 A  358  VAL PRO ASP GLU VAL LYS SER SER SER ASP LEU LEU ARG          
  11 A  358  PHE TYR GLN ASN TRP GLN PRO ALA TRP ALA PRO GLY THR          
  12 A  358  GLN ARG LEU TYR ALA ASN SER SER ILE GLY LEU PHE GLY          
  13 A  358  ALA LEU ALA VAL LYS PRO SER GLY LEU SER PHE GLU GLN          
  14 A  358  ALA MET GLN THR ARG VAL PHE GLN PRO LEU LYS LEU ASN          
  15 A  358  HIS THR TRP ILE ASN VAL PRO PRO ALA GLU GLU LYS ASN          
  16 A  358  TYR ALA TRP GLY TYR ARG GLU GLY LYS ALA VAL HIS VAL          
  17 A  358  SER PRO GLY ALA LEU ASP ALA GLU ALA TYR GLY VAL LYS          
  18 A  358  SER THR ILE GLU ASP MET ALA ARG TRP VAL GLN SER ASN          
  19 A  358  LEU LYS PRO LEU ASP ILE ASN GLU LYS THR LEU GLN GLN          
  20 A  358  GLY ILE GLN LEU ALA GLN SER ARG TYR TRP GLN THR GLY          
  21 A  358  ASP MET TYR GLN GLY LEU GLY TRP GLU MET LEU ASP TRP          
  22 A  358  PRO VAL ASN PRO ASP SER ILE ILE ASN GLY SER ASP ASN          
  23 A  358  LYS ILE ALA LEU ALA ALA ARG PRO VAL LYS ALA ILE THR          
  24 A  358  PRO PRO THR PRO ALA VAL ARG ALA SER TRP VAL HIS LYS          
  25 A  358  THR GLY ALA THR GLY GLY PHE GLY SER TYR VAL ALA PHE          
  26 A  358  ILE PRO GLU LYS GLU LEU GLY ILE VAL MET LEU ALA ASN          
  27 A  358  LYS ASN TYR PRO ASN PRO ALA ARG VAL ASP ALA ALA TRP          
  28 A  358  GLN ILE LEU ASN ALA LEU GLN                                  
   1 B  358  ALA PRO GLN GLN ILE ASN ASP ILE VAL HIS ARG THR ILE          
   2 B  358  THR PRO LEU ILE GLU GLN GLN LYS ILE PRO GLY MET ALA          
   3 B  358  VAL ALA VAL ILE TYR GLN GLY LYS PRO TYR TYR PHE THR          
   4 B  358  TRP GLY TYR ALA ASP ILE ALA LYS LYS GLN PRO VAL THR          
   5 B  358  GLN GLN THR LEU PHE GLU LEU GLY SER VAL SER LYS THR          
   6 B  358  PHE THR GLY VAL LEU GLY GLY ASP ALA ILE ALA ARG GLY          
   7 B  358  GLU ILE LYS LEU SER ASP PRO THR THR LYS TYR TRP PRO          
   8 B  358  GLU LEU THR ALA LYS GLN TRP ASN GLY ILE THR LEU LEU          
   9 B  358  HIS LEU ALA THR TYR THR ALA GLY GLY LEU PRO LEU GLN          
  10 B  358  VAL PRO ASP GLU VAL LYS SER SER SER ASP LEU LEU ARG          
  11 B  358  PHE TYR GLN ASN TRP GLN PRO ALA TRP ALA PRO GLY THR          
  12 B  358  GLN ARG LEU TYR ALA ASN SER SER ILE GLY LEU PHE GLY          
  13 B  358  ALA LEU ALA VAL LYS PRO SER GLY LEU SER PHE GLU GLN          
  14 B  358  ALA MET GLN THR ARG VAL PHE GLN PRO LEU LYS LEU ASN          
  15 B  358  HIS THR TRP ILE ASN VAL PRO PRO ALA GLU GLU LYS ASN          
  16 B  358  TYR ALA TRP GLY TYR ARG GLU GLY LYS ALA VAL HIS VAL          
  17 B  358  SER PRO GLY ALA LEU ASP ALA GLU ALA TYR GLY VAL LYS          
  18 B  358  SER THR ILE GLU ASP MET ALA ARG TRP VAL GLN SER ASN          
  19 B  358  LEU LYS PRO LEU ASP ILE ASN GLU LYS THR LEU GLN GLN          
  20 B  358  GLY ILE GLN LEU ALA GLN SER ARG TYR TRP GLN THR GLY          
  21 B  358  ASP MET TYR GLN GLY LEU GLY TRP GLU MET LEU ASP TRP          
  22 B  358  PRO VAL ASN PRO ASP SER ILE ILE ASN GLY SER ASP ASN          
  23 B  358  LYS ILE ALA LEU ALA ALA ARG PRO VAL LYS ALA ILE THR          
  24 B  358  PRO PRO THR PRO ALA VAL ARG ALA SER TRP VAL HIS LYS          
  25 B  358  THR GLY ALA THR GLY GLY PHE GLY SER TYR VAL ALA PHE          
  26 B  358  ILE PRO GLU LYS GLU LEU GLY ILE VAL MET LEU ALA ASN          
  27 B  358  LYS ASN TYR PRO ASN PRO ALA ARG VAL ASP ALA ALA TRP          
  28 B  358  GLN ILE LEU ASN ALA LEU GLN                                  

>  <HET>
 PO4  A   1       5                                                       
 PO4  A   2       5                                                       
 ETP  A 964      27                                                       
   K  B   3       1                                                       
 ETP  B 964      27                                                       

>  <HETNAM>
     PO4 PHOSPHATE ION                                                    
     ETP 3-(4-BENZENESULFONYL-THIOPHENE-2-SULFONYLAMINO)-                 
   2 ETP  PHENYLBORONIC ACID                                              
       K POTASSIUM ION                                                    

>  <FORMUL>
   3  PO4    2(O4 P 3-)                                                   
   5  ETP    2(C16 H14 B N O6 S3)                                         
   6    K    K 1+                                                         
   8  HOH   *318(H2 O)                                                    

>  <HELIX>
   1   1 PRO A    5  LYS A   24  1                                  20    
   2   2 VAL A   65  ARG A   80  1                                  16    
   3   3 THR A   89  TRP A   93  5                                   5    
   4   4 ALA A   98  ASN A  102  5                                   5    
   5   5 THR A  105  THR A  111  1                                   7    
   6   6 SER A  127  TRP A  138  1                                  12    
   7   7 ALA A  151  VAL A  163  1                                  13    
   8   8 LYS A  164  GLY A  167  5                                   4    
   9   9 SER A  169  VAL A  178  1                                  10    
  10  10 PRO A  192  ASN A  198  5                                   7    
  11  11 LEU A  216  TYR A  221  1                                   6    
  12  12 ILE A  227  LYS A  239  1                                  13    
  13  13 PRO A  240  ILE A  243  5                                   4    
  14  14 GLU A  245  GLN A  256  1                                  12    
  15  15 ASN A  279  SER A  287  1                                   9    
  16  16 ASP A  288  LEU A  293  1                                   6    
  17  17 PRO A  330  LYS A  332  5                                   3    
  18  18 PRO A  345  GLN A  361  1                                  17    
  19  19 PRO B    5  LYS B   24  1                                  20    
  20  20 VAL B   65  ARG B   80  1                                  16    
  21  21 THR B   89  TYR B   92  5                                   4    
  22  22 ALA B   98  ASN B  102  5                                   5    
  23  23 THR B  105  THR B  111  1                                   7    
  24  24 SER B  127  TRP B  138  1                                  12    
  25  25 ALA B  151  VAL B  163  1                                  13    
  26  26 LYS B  164  GLY B  167  5                                   4    
  27  27 SER B  169  VAL B  178  1                                  10    
  28  28 PRO B  192  ASN B  198  5                                   7    
  29  29 LEU B  216  TYR B  221  1                                   6    
  30  30 THR B  226  LYS B  239  1                                  14    
  31  31 PRO B  240  ILE B  243  5                                   4    
  32  32 GLU B  245  GLN B  256  1                                  12    
  33  33 ASN B  279  SER B  287  1                                   9    
  34  34 ASP B  288  LEU B  293  1                                   6    
  35  35 PRO B  345  GLN B  361  1                                  17    

>  <SHEET>
   1   A10 GLN A  52  PRO A  53  0                                        
   2   A10 LYS A  37  ASP A  47 -1  N  ALA A  46   O  GLN A  52           
   3   A10 GLY A  27  TYR A  34 -1  O  MET A  28   N  TRP A  43           
   4   A10 LEU A 334  ALA A 340 -1  O  GLY A 335   N  ILE A  33           
   5   A10 GLY A 323  ILE A 329 -1  N  GLY A 323   O  ALA A 340           
   6   A10 SER A 311  ALA A 318 -1  N  VAL A 313   O  PHE A 328           
   7   A10 GLU A 272  ASP A 275 -1  O  GLU A 272   N  HIS A 314           
   8   A10 MET A 265  GLN A 267 -1  O  TYR A 266   N  MET A 273           
   9   A10 ARG A 258  THR A 262 -1  N  TYR A 259   O  GLN A 267           
  10   A10 LYS A 299  THR A 305 -1  N  LYS A 299   O  GLN A 261           
   1   B 2 LEU A  59  GLU A  61  0                                        
   2   B 2 LYS A 224  THR A 226 -1  O  SER A 225   N  PHE A  60           
   1   C 2 GLN A 147  ARG A 148  0                                        
   2   C 2 ARG A 296  PRO A 297 -1  O  ARG A 296   N  ARG A 148           
   1   D 2 GLY A 202  ARG A 204  0                                        
   2   D 2 LYS A 207  VAL A 209 -1  O  LYS A 207   N  ARG A 204           
   1   E 9 LYS B  37  GLY B  44  0                                        
   2   E 9 GLY B  27  TYR B  34 -1  O  MET B  28   N  TRP B  43           
   3   E 9 LEU B 334  ALA B 340 -1  O  GLY B 335   N  ILE B  33           
   4   E 9 GLY B 323  ILE B 329 -1  O  GLY B 323   N  ALA B 340           
   5   E 9 SER B 311  ALA B 318 -1  N  VAL B 313   O  PHE B 328           
   6   E 9 GLU B 272  ASP B 275 -1  O  GLU B 272   N  HIS B 314           
   7   E 9 MET B 265  GLN B 267 -1  N  TYR B 266   O  MET B 273           
   8   E 9 ARG B 258  THR B 262 -1  N  TYR B 259   O  GLN B 267           
   9   E 9 LYS B 299  THR B 305 -1  N  LYS B 299   O  GLN B 261           
   1   F 2 PHE B  60  GLU B  61  0                                        
   2   F 2 LYS B 224  SER B 225 -1  O  SER B 225   N  PHE B  60           
   1   G 2 GLN B 147  ARG B 148  0                                        
   2   G 2 ARG B 296  PRO B 297 -1  O  ARG B 296   N  ARG B 148           

>  <LINK>
       OG  SER A  64                 B   ETP A 964     1555   1555  1.64  
       OG  SER B  64                 B   ETP B 964     1555   1555  1.62  
       O   HOH A 485                 K     K B   3     1555   1555  3.61  
       O   HOH A 565                 K     K B   3     1555   1555  3.10  
       K     K B   3                 O   HOH B 443     1555   1555  3.04  
       K     K B   3                 O   HOH B 656     1555   1555  3.57  

>  <CISPEP>
   1 TRP A  276    PRO A  277          0         0.10                     
   2 THR A  302    PRO A  303          0        -0.31                     
   3 TRP B  276    PRO B  277          0         0.06                     
   4 THR B  302    PRO B  303          0        -0.12                     

>  <SITE>
   1 AC1  4 HIS A 186  HOH A 607  HOH A 714  LYS B 290                    
   1 AC2  3 PRO A 304  HOH A 684  HOH A 685                               
   1 AC3  3 PRO A 303  HOH A 565  HOH B 443                               
   1 AC4 12 SER A  64  TYR A 150  ASN A 152  TYR A 221                    
   2 AC4 12 GLY A 317  ALA A 318  THR A 319  ASN A 343                    
   3 AC4 12 HOH A 402  HOH A 406  HOH A 481  HOH A 560                    
   1 AC5 11 SER B  64  GLN B 120  TYR B 150  ASN B 152                    
   2 AC5 11 TYR B 221  GLY B 317  ALA B 318  THR B 319                    
   3 AC5 11 ASN B 343  HOH B 400  HOH B 448                               

>  <ORIGX1>
      1.000000  0.000000  0.000000        0.00000                         

>  <ORIGX2>
      0.000000  1.000000  0.000000        0.00000                         

>  <ORIGX3>
      0.000000  0.000000  1.000000        0.00000                         

>  <SCALE1>
      0.008404  0.000000  0.004014        0.00000                         

>  <SCALE2>
      0.000000  0.012811  0.000000        0.00000                         

>  <SCALE3>
      0.000000  0.000000  0.011333        0.00000                         

>  <MASTER>
      358    0    5   35   29    0    9    6 5840    2   71   56          

$$$$
