start_structures/Ligand_Substrate/Ligand_Complex_Stripped/FDT_1Y54.pdb
 OpenBabel08222315203D

 24 25  0  0  1  0  0  0  0  0999 V2000
   13.2190   23.7510   23.7980 N   0  0  0  0  0  0  0  0  0  0  0  0
   12.3270   23.9240   24.9400 C   0  0  2  0  0  0  0  0  0  0  0  0
   11.3060   22.8170   25.1490 C   0  0  0  0  0  0  0  0  0  0  0  0
   10.5870   22.8980   26.1690 O   0  0  0  0  0  0  0  0  0  0  0  0
   11.5850   25.2680   24.8120 C   0  0  0  0  0  0  0  0  0  0  0  0
   12.7000   26.0950   25.1450 O   0  0  0  0  0  0  0  0  0  0  0  0
   14.0260   28.1030   22.4920 C   0  0  0  0  0  0  0  0  0  0  0  0
   14.1150   27.6520   23.7860 C   0  0  2  0  0  0  0  0  0  0  0  0
   12.9780   26.7530   23.9820 C   0  0  0  0  0  0  0  0  0  0  0  0
   14.9080   28.0890   24.9060 C   0  0  2  0  0  0  0  0  0  0  0  0
   14.6600   29.7130   25.7180 S   0  0  0  0  0  0  0  0  0  0  0  0
   12.2280   26.5950   23.0120 O   0  0  0  0  0  0  0  0  0  0  0  0
   14.9710   29.4260   22.3000 N   0  0  0  0  0  0  0  0  0  0  0  0
   14.6040   30.3400   23.2690 C   0  0  2  0  0  0  0  0  0  0  0  0
   16.4290   27.9780   24.6700 C   0  0  0  0  0  0  0  0  0  0  0  0
   15.3690   30.8280   24.3610 C   0  0  0  0  0  0  0  0  0  0  0  0
   13.2120   30.7870   23.3170 C   0  0  0  0  0  0  0  0  0  0  0  0
   12.4090   30.3870   22.4240 O   0  0  0  0  0  0  0  0  0  0  0  0
   17.1200   27.4610   23.6090 C   0  0  0  0  0  0  0  0  0  0  0  0
   12.8550   31.5490   24.1780 O   0  0  0  0  0  0  0  0  0  0  0  0
   17.2710   28.4850   25.6990 N   0  0  0  0  0  0  0  0  0  0  0  0
   18.4890   28.2430   25.1970 N   0  0  0  0  0  0  0  0  0  0  0  0
   18.4970   27.6540   23.9950 N   0  0  0  0  0  0  0  0  0  0  0  0
   19.6230   27.2520   23.1650 C   0  0  0  0  0  0  0  0  0  0  0  0
  2  1  1  6  0  0  0
  2  3  1  0  0  0  0
  3  4  2  0  0  0  0
  5  2  1  0  0  0  0
  5  6  1  0  0  0  0
  6  9  1  0  0  0  0
  7  8  1  0  0  0  0
  7 13  1  0  0  0  0
  8  9  1  1  0  0  0
  8 10  1  0  0  0  0
  9 12  2  0  0  0  0
 10 11  1  0  0  0  0
 10 15  1  6  0  0  0
 11 16  1  0  0  0  0
 13 14  1  0  0  0  0
 14 16  1  0  0  0  0
 14 17  1  1  0  0  0
 15 19  2  0  0  0  0
 15 21  1  0  0  0  0
 17 18  2  0  0  0  0
 17 20  1  0  0  0  0
 19 23  1  0  0  0  0
 21 22  2  0  0  0  0
 22 23  1  0  0  0  0
 23 24  1  0  0  0  0
M  END
>  <HEADER>
    HYDROLASE                               02-DEC-04   1Y54              

>  <TITLE>
    CRYSTAL STRUCTURE OF THE NATIVE CLASS C BETA-LACTAMASE FROM           
   2 ENTEROBACTER CLOACAE 908R COMPLEXED WITH BRL42715                    

>  <COMPND>
    MOL_ID: 1;                                                            
   2 MOLECULE: BETA-LACTAMASE;                                            
   3 CHAIN: A;                                                            
   4 SYNONYM: CLASS C BETA-LACTAMASE 908R, CEPHALOSPORINASE;              
   5 EC: 3.5.2.6;                                                         
   6 ENGINEERED: YES                                                      

>  <SOURCE>
    MOL_ID: 1;                                                            
   2 ORGANISM_SCIENTIFIC: ENTEROBACTER CLOACAE;                           
   3 ORGANISM_TAXID: 550;                                                 
   4 STRAIN: Q908R;                                                       
   5 EXPRESSION_SYSTEM: ESCHERICHIA COLI;                                 
   6 EXPRESSION_SYSTEM_TAXID: 562;                                        
   7 EXPRESSION_SYSTEM_STRAIN: SNO302;                                    
   8 EXPRESSION_SYSTEM_VECTOR_TYPE: PLASMID;                              
   9 EXPRESSION_SYSTEM_PLASMID: PBR322                                    

>  <KEYWDS>
    CLASS C BETA-LACTAMASE, HYDROLASE                                     

>  <EXPDTA>
    X-RAY DIFFRACTION                                                     

>  <AUTHOR>
    C.MICHAUX,P.CHARLIER,J.-M.FRERE,J.WOUTERS                             

>  <REVDAT>
   3   11-OCT-17 1Y54    1       REMARK                                   
   2   24-FEB-09 1Y54    1       VERSN                                    
   1   29-MAR-05 1Y54    0                                                

>  <JRNL>
      AUTH   C.MICHAUX,P.CHARLIER,J.-M.FRERE,J.WOUTERS                    
      TITL   CRYSTAL STRUCTURE OF BRL 42715,                              
      TITL 2 C6-(N1-METHYL-1,2,3-TRIAZOLYLMETHYLENE)PENEM, IN COMPLEX     
      TITL 3 WITH ENTEROBACTERCLOACAE 908R BETA-LACTAMASE: EVIDENCE FOR A 
      TITL 4 STEREOSELECTIVE MECHANISM FROM DOCKING STUDIES               
      REF    J.AM.CHEM.SOC.                V. 127  3262 2005              
      REFN                   ISSN 0002-7863                               
      PMID   15755127                                                     
      DOI    10.1021/JA0426241                                            

>  <REMARK>
   2                                                                      
   2 RESOLUTION.    2.10 ANGSTROMS.                                       
   3                                                                      
   3 REFINEMENT.                                                          
   3   PROGRAM     : SHELXL-97                                            
   3   AUTHORS     : G.M.SHELDRICK                                        
   3                                                                      
   3  DATA USED IN REFINEMENT.                                            
   3   RESOLUTION RANGE HIGH (ANGSTROMS) : 2.10                           
   3   RESOLUTION RANGE LOW  (ANGSTROMS) : 10.00                          
   3   DATA CUTOFF            (SIGMA(F)) : 4.000                          
   3   COMPLETENESS FOR RANGE        (%) : 98.5                           
   3   CROSS-VALIDATION METHOD           : FREE R                         
   3   FREE R VALUE TEST SET SELECTION   : RANDOM                         
   3                                                                      
   3  FIT TO DATA USED IN REFINEMENT (NO CUTOFF).                         
   3   R VALUE   (WORKING + TEST SET, NO CUTOFF) : 0.255                  
   3   R VALUE          (WORKING SET, NO CUTOFF) : 0.255                  
   3   FREE R VALUE                  (NO CUTOFF) : 0.336                  
   3   FREE R VALUE TEST SET SIZE (%, NO CUTOFF) : 1.100                  
   3   FREE R VALUE TEST SET COUNT   (NO CUTOFF) : 230                    
   3   TOTAL NUMBER OF REFLECTIONS   (NO CUTOFF) : 20669                  
   3                                                                      
   3  FIT/AGREEMENT OF MODEL FOR DATA WITH F>4SIG(F).                     
   3   R VALUE   (WORKING + TEST SET, F>4SIG(F)) : 0.227                  
   3   R VALUE          (WORKING SET, F>4SIG(F)) : 0.227                  
   3   FREE R VALUE                  (F>4SIG(F)) : 0.292                  
   3   FREE R VALUE TEST SET SIZE (%, F>4SIG(F)) : 1.000                  
   3   FREE R VALUE TEST SET COUNT   (F>4SIG(F)) : 151                    
   3   TOTAL NUMBER OF REFLECTIONS   (F>4SIG(F)) : 15035                  
   3                                                                      
   3  NUMBER OF NON-HYDROGEN ATOMS USED IN REFINEMENT.                    
   3   PROTEIN ATOMS      : 2757                                          
   3   NUCLEIC ACID ATOMS : 0                                             
   3   HETEROGEN ATOMS    : 18                                            
   3   SOLVENT ATOMS      : 141                                           
   3                                                                      
   3  MODEL REFINEMENT.                                                   
   3   OCCUPANCY SUM OF NON-HYDROGEN ATOMS      : 2882.0                  
   3   OCCUPANCY SUM OF HYDROGEN ATOMS          : 2708.0                  
   3   NUMBER OF DISCRETELY DISORDERED RESIDUES : 0                       
   3   NUMBER OF LEAST-SQUARES PARAMETERS       : 11668                   
   3   NUMBER OF RESTRAINTS                     : 11760                   
   3                                                                      
   3  RMS DEVIATIONS FROM RESTRAINT TARGET VALUES.                        
   3   BOND LENGTHS                         (A) : 0.007                   
   3   ANGLE DISTANCES                      (A) : 0.021                   
   3   SIMILAR DISTANCES (NO TARGET VALUES) (A) : 0.000                   
   3   DISTANCES FROM RESTRAINT PLANES      (A) : 0.024                   
   3   ZERO CHIRAL VOLUMES               (A**3) : 0.024                   
   3   NON-ZERO CHIRAL VOLUMES           (A**3) : 0.034                   
   3   ANTI-BUMPING DISTANCE RESTRAINTS     (A) : 0.005                   
   3   RIGID-BOND ADP COMPONENTS         (A**2) : 0.000                   
   3   SIMILAR ADP COMPONENTS            (A**2) : 0.033                   
   3   APPROXIMATELY ISOTROPIC ADPS      (A**2) : 0.000                   
   3                                                                      
   3  BULK SOLVENT MODELING.                                              
   3   METHOD USED: NULL                                                  
   3                                                                      
   3  STEREOCHEMISTRY TARGET VALUES : NULL                                
   3   SPECIAL CASE: NULL                                                 
   3                                                                      
   3  OTHER REFINEMENT REMARKS: NULL                                      
   4                                                                      
   4 1Y54 COMPLIES WITH FORMAT V. 3.30, 13-JUL-11                         
 100                                                                      
 100 THIS ENTRY HAS BEEN PROCESSED BY PDBJ ON 10-DEC-04.                  
 100 THE DEPOSITION ID IS D_1000031127.                                   
 200                                                                      
 200 EXPERIMENTAL DETAILS                                                 
 200  EXPERIMENT TYPE                : X-RAY DIFFRACTION                  
 200  DATE OF DATA COLLECTION        : 01-SEP-00                          
 200  TEMPERATURE           (KELVIN) : 100                                
 200  PH                             : 9.0                                
 200  NUMBER OF CRYSTALS USED        : 1                                  
 200                                                                      
 200  SYNCHROTRON              (Y/N) : Y                                  
 200  RADIATION SOURCE               : LURE                               
 200  BEAMLINE                       : NULL                               
 200  X-RAY GENERATOR MODEL          : NULL                               
 200  MONOCHROMATIC OR LAUE    (M/L) : M                                  
 200  WAVELENGTH OR RANGE        (A) : 0.966                              
 200  MONOCHROMATOR                  : NULL                               
 200  OPTICS                         : NULL                               
 200                                                                      
 200  DETECTOR TYPE                  : IMAGE PLATE                        
 200  DETECTOR MANUFACTURER          : MARRESEARCH                        
 200  INTENSITY-INTEGRATION SOFTWARE : MAR                                
 200  DATA SCALING SOFTWARE          : CCP4 (SCALA)                       
 200                                                                      
 200  NUMBER OF UNIQUE REFLECTIONS   : 20669                              
 200  RESOLUTION RANGE HIGH      (A) : 2.070                              
 200  RESOLUTION RANGE LOW       (A) : 10.000                             
 200  REJECTION CRITERIA  (SIGMA(I)) : 4.000                              
 200                                                                      
 200 OVERALL.                                                             
 200  COMPLETENESS FOR RANGE     (%) : NULL                               
 200  DATA REDUNDANCY                : NULL                               
 200  R MERGE                    (I) : NULL                               
 200  R SYM                      (I) : NULL                               
 200  <I/SIGMA(I)> FOR THE DATA SET  : NULL                               
 200                                                                      
 200 IN THE HIGHEST RESOLUTION SHELL.                                     
 200  HIGHEST RESOLUTION SHELL, RANGE HIGH (A) : 2.07                     
 200  HIGHEST RESOLUTION SHELL, RANGE LOW  (A) : NULL                     
 200  COMPLETENESS FOR SHELL     (%) : 90.6                               
 200  DATA REDUNDANCY IN SHELL       : NULL                               
 200  R MERGE FOR SHELL          (I) : NULL                               
 200  R SYM FOR SHELL            (I) : NULL                               
 200  <I/SIGMA(I)> FOR SHELL         : NULL                               
 200                                                                      
 200 DIFFRACTION PROTOCOL: SINGLE WAVELENGTH                              
 200 METHOD USED TO DETERMINE THE STRUCTURE: MOLECULAR REPLACEMENT        
 200 SOFTWARE USED: SHELX                                                 
 200 STARTING MODEL: NULL                                                 
 200                                                                      
 200 REMARK: NULL                                                         
 280                                                                      
 280 CRYSTAL                                                              
 280 SOLVENT CONTENT, VS   (%): 36.10                                     
 280 MATTHEWS COEFFICIENT, VM (ANGSTROMS**3/DA): 1.93                     
 280                                                                      
 280 CRYSTALLIZATION CONDITIONS: PEG 6000 30%, BICINE 100MM, PH 9.0,      
 280  VAPOR DIFFUSION, HANGING DROP, TEMPERATURE 298K                     
 290                                                                      
 290 CRYSTALLOGRAPHIC SYMMETRY                                            
 290 SYMMETRY OPERATORS FOR SPACE GROUP: P 21 21 2                        
 290                                                                      
 290      SYMOP   SYMMETRY                                                
 290     NNNMMM   OPERATOR                                                
 290       1555   X,Y,Z                                                   
 290       2555   -X,-Y,Z                                                 
 290       3555   -X+1/2,Y+1/2,-Z                                         
 290       4555   X+1/2,-Y+1/2,-Z                                         
 290                                                                      
 290     WHERE NNN -> OPERATOR NUMBER                                     
 290           MMM -> TRANSLATION VECTOR                                  
 290                                                                      
 290 CRYSTALLOGRAPHIC SYMMETRY TRANSFORMATIONS                            
 290 THE FOLLOWING TRANSFORMATIONS OPERATE ON THE ATOM/HETATM             
 290 RECORDS IN THIS ENTRY TO PRODUCE CRYSTALLOGRAPHICALLY                
 290 RELATED MOLECULES.                                                   
 290   SMTRY1   1  1.000000  0.000000  0.000000        0.00000            
 290   SMTRY2   1  0.000000  1.000000  0.000000        0.00000            
 290   SMTRY3   1  0.000000  0.000000  1.000000        0.00000            
 290   SMTRY1   2 -1.000000  0.000000  0.000000        0.00000            
 290   SMTRY2   2  0.000000 -1.000000  0.000000        0.00000            
 290   SMTRY3   2  0.000000  0.000000  1.000000        0.00000            
 290   SMTRY1   3 -1.000000  0.000000  0.000000       22.18250            
 290   SMTRY2   3  0.000000  1.000000  0.000000       41.11050            
 290   SMTRY3   3  0.000000  0.000000 -1.000000        0.00000            
 290   SMTRY1   4  1.000000  0.000000  0.000000       22.18250            
 290   SMTRY2   4  0.000000 -1.000000  0.000000       41.11050            
 290   SMTRY3   4  0.000000  0.000000 -1.000000        0.00000            
 290                                                                      
 290 REMARK: NULL                                                         
 300                                                                      
 300 BIOMOLECULE: 1                                                       
 300 SEE REMARK 350 FOR THE AUTHOR PROVIDED AND/OR PROGRAM                
 300 GENERATED ASSEMBLY INFORMATION FOR THE STRUCTURE IN                  
 300 THIS ENTRY. THE REMARK MAY ALSO PROVIDE INFORMATION ON               
 300 BURIED SURFACE AREA.                                                 
 350                                                                      
 350 COORDINATES FOR A COMPLETE MULTIMER REPRESENTING THE KNOWN           
 350 BIOLOGICALLY SIGNIFICANT OLIGOMERIZATION STATE OF THE                
 350 MOLECULE CAN BE GENERATED BY APPLYING BIOMT TRANSFORMATIONS          
 350 GIVEN BELOW.  BOTH NON-CRYSTALLOGRAPHIC AND                          
 350 CRYSTALLOGRAPHIC OPERATIONS ARE GIVEN.                               
 350                                                                      
 350 BIOMOLECULE: 1                                                       
 350 AUTHOR DETERMINED BIOLOGICAL UNIT: MONOMERIC                         
 350 APPLY THE FOLLOWING TO CHAINS: A                                     
 350   BIOMT1   1  1.000000  0.000000  0.000000        0.00000            
 350   BIOMT2   1  0.000000  1.000000  0.000000        0.00000            
 350   BIOMT3   1  0.000000  0.000000  1.000000        0.00000            
 465                                                                      
 465 MISSING RESIDUES                                                     
 465 THE FOLLOWING RESIDUES WERE NOT LOCATED IN THE                       
 465 EXPERIMENT. (M=MODEL NUMBER; RES=RESIDUE NAME; C=CHAIN               
 465 IDENTIFIER; SSSEQ=SEQUENCE NUMBER; I=INSERTION CODE.)                
 465                                                                      
 465   M RES C SSSEQI                                                     
 465     THR A     1                                                      
 465     PRO A     2                                                      
 480                                                                      
 480 ZERO OCCUPANCY ATOM                                                  
 480 THE FOLLOWING RESIDUES HAVE ATOMS MODELED WITH ZERO                  
 480 OCCUPANCY. THE LOCATION AND PROPERTIES OF THESE ATOMS                
 480 MAY NOT BE RELIABLE. (M=MODEL NUMBER; RES=RESIDUE NAME;              
 480 C=CHAIN IDENTIFIER; SSEQ=SEQUENCE NUMBER; I=INSERTION CODE):         
 480   M RES C SSEQI ATOMS                                                
 480     VAL A    3   N    CA   CB   CG1  CG2                             
 480     SER A    4   OG                                                  
 480     GLU A    5   OE1                                                 
 480     LYS A   99   CG   CD   CE   NZ                                   
 480     GLN A  120   CG   CD   OE1  NE2                                  
 480     ASP A  123   CB   CG   OD1  OD2                                  
 480     GLU A  124   CD   OE1  OE2                                       
 480     ARG A  261   CZ   NH1  NH2                                       
 480     GLU A  279   OE2                                                 
 480     GLU A  300   OE2                                                 
 480     GLU A  331   OE1                                                 
 480     HIS A  355   CG   ND1  CD2  CE1  NE2                             
 480     GLN A  361   NE2                                                 
 500                                                                      
 500 GEOMETRY AND STEREOCHEMISTRY                                         
 500 SUBTOPIC: TORSION ANGLES                                             
 500                                                                      
 500 TORSION ANGLES OUTSIDE THE EXPECTED RAMACHANDRAN REGIONS:            
 500 (M=MODEL NUMBER; RES=RESIDUE NAME; C=CHAIN IDENTIFIER;               
 500 SSEQ=SEQUENCE NUMBER; I=INSERTION CODE).                             
 500                                                                      
 500 STANDARD TABLE:                                                      
 500 FORMAT:(10X,I3,1X,A3,1X,A1,I4,A1,4X,F7.2,3X,F7.2)                    
 500                                                                      
 500 EXPECTED VALUES: GJ KLEYWEGT AND TA JONES (1996). PHI/PSI-           
 500 CHOLOGY: RAMACHANDRAN REVISITED. STRUCTURE 4, 1395 - 1400            
 500                                                                      
 500  M RES CSSEQI        PSI       PHI                                   
 500    SER A   4       62.52     82.68                                   
 500    PRO A  56        7.08    -64.40                                   
 500    SER A  64       -4.59    -58.86                                   
 500    PRO A 122      151.42    -42.90                                   
 500    PRO A 140     -144.79    -44.53                                   
 500    GLN A 141      -49.86   -174.93                                   
 500    PRO A 144      139.66    -39.44                                   
 500    TYR A 150      125.15    -38.11                                   
 500    SER A 154      -67.40    -93.35                                   
 500    VAL A 178      -56.26   -128.68                                   
 500    ARG A 204      -72.40   -107.92                                   
 500    ASP A 205       62.03   -116.53                                   
 500    TYR A 221        0.47   -161.47                                   
 500    ALA A 244      -71.64    -64.80                                   
 500    ALA A 310       53.68    -69.39                                   
 500    ASN A 341       48.75    -97.60                                   
 500    PRO A 345      121.16    -35.06                                   
 500                                                                      
 500 REMARK: NULL                                                         
 800                                                                      
 800 SITE                                                                 
 800 SITE_IDENTIFIER: AC1                                                 
 800 EVIDENCE_CODE: SOFTWARE                                              
 800 SITE_DESCRIPTION: BINDING SITE FOR RESIDUE FDT A 400                 

>  <DBREF>
 1Y54 A    1   361  UNP    P05364   AMPC_ENTCL      21    381             

>  <SEQADV>
 1Y54 PRO A   88  UNP  P05364    ALA   108 SEE REMARK 999                 
 1Y54 VAL A  132  UNP  P05364    LEU   152 SEE REMARK 999                 
 1Y54 VAL A  299  UNP  P05364    ALA   319 SEE REMARK 999                 

>  <SEQRES>
   1 A  361  THR PRO VAL SER GLU LYS GLN LEU ALA GLU VAL VAL ALA          
   2 A  361  ASN THR ILE THR PRO LEU MET LYS ALA GLN SER VAL PRO          
   3 A  361  GLY MET ALA VAL ALA VAL ILE TYR GLN GLY LYS PRO HIS          
   4 A  361  TYR TYR THR PHE GLY LYS ALA ASP ILE ALA ALA ASN LYS          
   5 A  361  PRO VAL THR PRO GLN THR LEU PHE GLU LEU GLY SER ILE          
   6 A  361  SER LYS THR PHE THR GLY VAL LEU GLY GLY ASP ALA ILE          
   7 A  361  ALA ARG GLY GLU ILE SER LEU ASP ASP PRO VAL THR ARG          
   8 A  361  TYR TRP PRO GLN LEU THR GLY LYS GLN TRP GLN GLY ILE          
   9 A  361  ARG MET LEU ASP LEU ALA THR TYR THR ALA GLY GLY LEU          
  10 A  361  PRO LEU GLN VAL PRO ASP GLU VAL THR ASP ASN ALA SER          
  11 A  361  LEU VAL ARG PHE TYR GLN ASN TRP GLN PRO GLN TRP LYS          
  12 A  361  PRO GLY THR THR ARG LEU TYR ALA ASN ALA SER ILE GLY          
  13 A  361  LEU PHE GLY ALA LEU ALA VAL LYS PRO SER GLY MET PRO          
  14 A  361  TYR GLU GLN ALA MET THR THR ARG VAL LEU LYS PRO LEU          
  15 A  361  LYS LEU ASP HIS THR TRP ILE ASN VAL PRO LYS ALA GLU          
  16 A  361  GLU ALA HIS TYR ALA TRP GLY TYR ARG ASP GLY LYS ALA          
  17 A  361  VAL ARG VAL SER PRO GLY MET LEU ASP ALA GLN ALA TYR          
  18 A  361  GLY VAL LYS THR ASN VAL GLN ASP MET ALA ASN TRP VAL          
  19 A  361  MET ALA ASN MET ALA PRO GLU ASN VAL ALA ASP ALA SER          
  20 A  361  LEU LYS GLN GLY ILE ALA LEU ALA GLN SER ARG TYR TRP          
  21 A  361  ARG ILE GLY SER MET TYR GLN GLY LEU GLY TRP GLU MET          
  22 A  361  LEU ASN TRP PRO VAL GLU ALA ASN THR VAL VAL GLU GLY          
  23 A  361  SER ASP SER LYS VAL ALA LEU ALA PRO LEU PRO VAL VAL          
  24 A  361  GLU VAL ASN PRO PRO ALA PRO PRO VAL LYS ALA SER TRP          
  25 A  361  VAL HIS LYS THR GLY SER THR GLY GLY PHE GLY SER TYR          
  26 A  361  VAL ALA PHE ILE PRO GLU LYS GLN ILE GLY ILE VAL MET          
  27 A  361  LEU ALA ASN THR SER TYR PRO ASN PRO ALA ARG VAL GLU          
  28 A  361  ALA ALA TYR HIS ILE LEU GLU ALA LEU GLN                      

>  <HET>
 FDT  A 400      18                                                       

>  <HETNAM>
     FDT (7R)-6-FORMYL-7-(1-METHYL-1H-1,2,3-TRIAZOL-4-YL)-4,7-            
   2 FDT  DIHYDRO-1,4-THIAZEPINE-3-CARBOXYLIC ACID                        

>  <HETSYN>
     FDT 7-(1-METHYL-1,2,3-TRIAZOL-4-YL)-6-FORMYL-2,7-DIHYDRO-            
   2 FDT  [1,4]THIAZEPINE-3-CARBOXYLIC ACID, BRL42715, C6-(N1-            
   3 FDT  METHYL-1,2,3-TRIAZOLYLMETHYLENE)PENEM                           

>  <FORMUL>
   2  FDT    C10 H10 N4 O3 S                                              
   3  HOH   *141(H2 O)                                                    

>  <HELIX>
   1   1 SER A    4  GLN A   23  1                                  20    
   2   2 ILE A   65  ARG A   80  1                                  16    
   3   3 PRO A   88  TYR A   92  5                                   5    
   4   4 ARG A  105  THR A  111  1                                   7    
   5   5 ASP A  127  ASN A  137  1                                  11    
   6   6 ALA A  151  VAL A  163  1                                  13    
   7   7 LYS A  164  GLY A  167  5                                   4    
   8   8 PRO A  169  VAL A  178  1                                  10    
   9   9 LEU A  179  LYS A  183  5                                   5    
  10  10 PRO A  192  TYR A  199  5                                   8    
  11  11 LEU A  216  TYR A  221  1                                   6    
  12  12 ASN A  226  ALA A  239  1                                  14    
  13  13 PRO A  240  VAL A  243  5                                   4    
  14  14 ASP A  245  GLN A  256  1                                  12    
  15  15 GLU A  279  ASP A  288  1                                  10    
  16  16 ASP A  288  LEU A  293  1                                   6    
  17  17 PRO A  345  ALA A  359  1                                  15    

>  <SHEET>
   1   A10 LYS A  52  PRO A  53  0                                        
   2   A10 LYS A  37  ASP A  47 -1  N  ASP A  47   O  LYS A  52           
   3   A10 GLY A  27  TYR A  34 -1  N  VAL A  30   O  TYR A  41           
   4   A10 GLY A 335  ALA A 340 -1  O  GLY A 335   N  ILE A  33           
   5   A10 GLY A 323  PHE A 328 -1  N  GLY A 323   O  ALA A 340           
   6   A10 SER A 311  SER A 318 -1  N  VAL A 313   O  PHE A 328           
   7   A10 GLU A 272  ASN A 275 -1  N  GLU A 272   O  HIS A 314           
   8   A10 MET A 265  GLN A 267 -1  N  TYR A 266   O  MET A 273           
   9   A10 ARG A 258  ILE A 262 -1  N  ILE A 262   O  MET A 265           
  10   A10 VAL A 299  ALA A 305 -1  O  VAL A 301   N  TYR A 259           
   1   B 2 PHE A  60  GLU A  61  0                                        
   2   B 2 LYS A 224  THR A 225 -1  O  THR A 225   N  PHE A  60           
   1   C 2 THR A 147  ARG A 148  0                                        
   2   C 2 LEU A 296  PRO A 297 -1  O  LEU A 296   N  ARG A 148           
   1   D 2 GLY A 202  TYR A 203  0                                        
   2   D 2 ALA A 208  VAL A 209 -1  O  VAL A 209   N  GLY A 202           

>  <LINK>
       OG  SER A  64                 C3  FDT A 400     1555   1555  1.37  

>  <CISPEP>
   1 TRP A  276    PRO A  277          0        10.33                     
   2 ASN A  302    PRO A  303          0        -4.93                     

>  <SITE>
   1 AC1  8 SER A  64  LEU A 119  ASN A 152  TYR A 221                    
   2 AC1  8 GLY A 317  SER A 318  HOH A 498  HOH A 500                    

>  <ORIGX1>
      1.000000  0.000000  0.000000        0.00000                         

>  <ORIGX2>
      0.000000  1.000000  0.000000        0.00000                         

>  <ORIGX3>
      0.000000  0.000000  1.000000        0.00000                         

>  <SCALE1>
      0.022540  0.000000  0.000000        0.00000                         

>  <SCALE2>
      0.000000  0.012162  0.000000        0.00000                         

>  <SCALE3>
      0.000000  0.000000  0.010400        0.00000                         

>  <MASTER>
      243    0    1   17   16    0    2    6 2916    1   19   28          

$$$$
