start_structures/Ligand_Substrate/Ligand_Complex_Stripped/FDX_7T7D.pdb
 OpenBabel08222315213D

 30 31  0  0  1  0  0  0  0  0999 V2000
   20.2750   40.7090    9.7630 N   0  0  0  0  0  0  0  0  0  0  0  0
   19.4710   39.5570   10.1470 C   0  0  2  0  0  0  0  0  0  0  0  0
   17.9770   39.8340   10.0400 C   0  0  0  0  0  0  0  0  0  0  0  0
   17.1860   38.8900   10.1240 O   0  0  0  0  0  0  0  0  0  0  0  0
   19.8040   39.1370   11.5790 C   0  0  0  0  0  0  0  0  0  0  0  0
   21.0880   38.5130   11.6660 O   0  0  0  0  0  0  0  0  0  0  0  0
   24.2860   39.9790   15.9640 C   0  0  2  0  0  0  0  0  0  0  0  0
   22.8300   39.8170   15.6390 C   0  0  0  0  0  0  0  0  0  0  0  0
   24.9310   39.3680   14.7230 C   0  0  0  0  0  0  0  0  0  0  0  0
   23.8040   37.6000   17.4770 C   0  0  1  0  0  0  0  0  0  0  0  0
   24.6710   36.3690   17.6800 C   0  0  0  0  0  0  0  0  0  0  0  0
   21.6820   40.3450   16.3520 C   0  0  0  0  0  0  0  0  0  0  0  0
   22.8570   37.5650   18.6700 C   0  0  0  0  0  0  0  0  0  0  0  0
   23.8010   38.7050   13.9140 C   0  0  2  0  0  0  0  0  0  0  0  0
   22.7020   36.0870   19.0060 C   0  0  2  0  0  0  0  0  0  0  0  0
   23.6490   39.3010   12.5230 C   0  0  1  0  0  0  0  0  0  0  0  0
   24.4580   38.4880   11.5320 C   0  0  0  0  0  0  0  0  0  0  0  0
   22.9270   35.8570   20.4690 C   0  0  0  0  0  0  0  0  0  0  0  0
   22.2140   39.3640   12.0330 C   0  0  0  0  0  0  0  0  0  0  0  0
   24.9070   34.5770   21.1640 C   0  0  0  0  0  0  0  0  0  0  0  0
   22.7750   33.4390   20.6930 C   0  0  0  0  0  0  0  0  0  0  0  0
   23.7580   35.3680   18.2590 N   0  0  0  0  0  0  0  0  0  0  0  0
   22.6150   39.1570   14.6030 N   0  0  0  0  0  0  0  0  0  0  0  0
   23.5080   34.6910   20.7640 N   0  0  0  0  0  0  0  0  0  0  0  0
   21.2730   39.7710   17.3880 O   0  0  0  0  0  0  0  0  0  0  0  0
   21.1150   41.3480   15.8590 O   0  0  0  0  0  0  0  0  0  0  0  0
   25.1360   37.4450   12.2520 O   0  0  0  0  0  0  0  0  0  0  0  0
   22.5780   36.6940   21.2970 O   0  0  0  0  0  0  0  0  0  0  0  0
   22.1680   40.7730   11.7780 O   0  0  0  0  0  0  0  0  0  0  0  0
   24.7790   39.0770   17.4080 S   0  0  0  0  0  0  0  0  0  0  0  0
  2  1  1  1  0  0  0
  2  5  1  0  0  0  0
  3  4  2  0  0  0  0
  3  2  1  0  0  0  0
  5  6  1  0  0  0  0
  6 19  1  0  0  0  0
  7  8  1  0  0  0  0
  7  9  1  0  0  0  0
  7 30  1  1  0  0  0
  8 12  1  0  0  0  0
  8 23  2  0  0  0  0
  9 14  1  0  0  0  0
 10 11  1  0  0  0  0
 10 13  1  0  0  0  0
 10 30  1  1  0  0  0
 11 22  1  0  0  0  0
 12 25  2  0  0  0  0
 12 26  1  0  0  0  0
 13 15  1  0  0  0  0
 14 16  1  6  0  0  0
 14 23  1  0  0  0  0
 15 18  1  1  0  0  0
 15 22  1  0  0  0  0
 16 17  1  6  0  0  0
 16 19  1  0  0  0  0
 17 27  1  0  0  0  0
 18 24  1  0  0  0  0
 18 28  2  0  0  0  0
 19 29  2  0  0  0  0
 20 24  1  0  0  0  0
 21 24  1  0  0  0  0
M  END
>  <HEADER>
    HYDROLASE/HYDROLASE INHIBITOR           15-DEC-21   7T7D              

>  <TITLE>
    MA-1-206-OXA-23 30S COMPLEX                                           

>  <COMPND>
    MOL_ID: 1;                                                            
   2 MOLECULE: BETA-LACTAMASE OXA-23;                                     
   3 CHAIN: A;                                                            
   4 ENGINEERED: YES                                                      

>  <SOURCE>
    MOL_ID: 1;                                                            
   2 ORGANISM_SCIENTIFIC: ACINETOBACTER BAUMANNII;                        
   3 ORGANISM_TAXID: 470;                                                 
   4 EXPRESSION_SYSTEM: ESCHERICHIA COLI;                                 
   5 EXPRESSION_SYSTEM_TAXID: 562                                         

>  <KEYWDS>
    ANTIBIOTIC RESISTANCE, INHIBITOR, COMPLEX, HYDROLASE, HYDROLASE-      
   2 HYDROLASE INHIBITOR COMPLEX                                          

>  <EXPDTA>
    X-RAY DIFFRACTION                                                     

>  <AUTHOR>
    C.A.SMITH,N.K.STEWART,S.B.VAKULENKO                                   

>  <REVDAT>
   2   13-JUL-22 7T7D    1       JRNL                                     
   1   18-MAY-22 7T7D    0                                                

>  <JRNL>
      AUTH   N.K.STEWART,M.TOTH,M.A.ALQURAFI,W.CHAI,T.Q.NGUYEN,P.QUAN,    
      AUTH 2 M.LEE,J.D.BUYNAK,C.A.SMITH,S.B.VAKULENKO                     
      TITL   C6 HYDROXYMETHYL-SUBSTITUTED CARBAPENEM MA-1-206 INHIBITS    
      TITL 2 THE MAJOR ACINETOBACTER BAUMANNII CARBAPENEMASE OXA-23 BY    
      TITL 3 IMPEDING DEACYLATION.                                        
      REF    MBIO                          V.  13 36722 2022              
      REFN                   ESSN 2150-7511                               
      PMID   35420470                                                     
      DOI    10.1128/MBIO.00367-22                                        

>  <REMARK>
   2                                                                      
   2 RESOLUTION.    2.65 ANGSTROMS.                                       
   3                                                                      
   3 REFINEMENT.                                                          
   3   PROGRAM     : PHENIX 1.19.2_4158                                   
   3   AUTHORS     : PAUL ADAMS,PAVEL AFONINE,VINCENT CHEN,IAN            
   3               : DAVIS,KRESHNA GOPAL,RALF GROSSE-KUNSTLEVE,           
   3               : LI-WEI HUNG,ROBERT IMMORMINO,TOM IOERGER,            
   3               : AIRLIE MCCOY,ERIK MCKEE,NIGEL MORIARTY,              
   3               : REETAL PAI,RANDY READ,JANE RICHARDSON,               
   3               : DAVID RICHARDSON,TOD ROMO,JIM SACCHETTINI,           
   3               : NICHOLAS SAUTER,JACOB SMITH,LAURENT                  
   3               : STORONI,TOM TERWILLIGER,PETER ZWART                  
   3                                                                      
   3    REFINEMENT TARGET : ML                                            
   3                                                                      
   3  DATA USED IN REFINEMENT.                                            
   3   RESOLUTION RANGE HIGH (ANGSTROMS) : 2.65                           
   3   RESOLUTION RANGE LOW  (ANGSTROMS) : 38.76                          
   3   MIN(FOBS/SIGMA_FOBS)              : 1.350                          
   3   COMPLETENESS FOR RANGE        (%) : 99.8                           
   3   NUMBER OF REFLECTIONS             : 18205                          
   3                                                                      
   3  FIT TO DATA USED IN REFINEMENT.                                     
   3   R VALUE     (WORKING + TEST SET) : 0.219                           
   3   R VALUE            (WORKING SET) : 0.218                           
   3   FREE R VALUE                     : 0.253                           
   3   FREE R VALUE TEST SET SIZE   (%) : 4.880                           
   3   FREE R VALUE TEST SET COUNT      : 889                             
   3                                                                      
   3  FIT TO DATA USED IN REFINEMENT (IN BINS).                           
   3   BIN  RESOLUTION RANGE  COMPL.    NWORK NFREE   RWORK  RFREE        
   3     1 38.7600 -  4.8100    1.00     3014   163  0.2066 0.2378        
   3     2  4.8100 -  3.8200    1.00     2900   148  0.1840 0.2210        
   3     3  3.8200 -  3.3400    1.00     2872   142  0.2168 0.2751        
   3     4  3.3400 -  3.0300    1.00     2850   148  0.2582 0.3065        
   3     5  3.0300 -  2.8200    1.00     2839   147  0.2872 0.3154        
   3     6  2.8200 -  2.6500    0.99     2841   141  0.3388 0.3274        
   3                                                                      
   3  BULK SOLVENT MODELLING.                                             
   3   METHOD USED        : FLAT BULK SOLVENT MODEL                       
   3   SOLVENT RADIUS     : 1.11                                          
   3   SHRINKAGE RADIUS   : 0.90                                          
   3   K_SOL              : NULL                                          
   3   B_SOL              : NULL                                          
   3                                                                      
   3  ERROR ESTIMATES.                                                    
   3   COORDINATE ERROR (MAXIMUM-LIKELIHOOD BASED)     : 0.340            
   3   PHASE ERROR (DEGREES, MAXIMUM-LIKELIHOOD BASED) : 30.050           
   3                                                                      
   3  B VALUES.                                                           
   3   FROM WILSON PLOT           (A**2) : NULL                           
   3   MEAN B VALUE      (OVERALL, A**2) : 88.11                          
   3   OVERALL ANISOTROPIC B VALUE.                                       
   3    B11 (A**2) : NULL                                                 
   3    B22 (A**2) : NULL                                                 
   3    B33 (A**2) : NULL                                                 
   3    B12 (A**2) : NULL                                                 
   3    B13 (A**2) : NULL                                                 
   3    B23 (A**2) : NULL                                                 
   3                                                                      
   3  TWINNING INFORMATION.                                               
   3   FRACTION: NULL                                                     
   3   OPERATOR: NULL                                                     
   3                                                                      
   3  DEVIATIONS FROM IDEAL VALUES.                                       
   3                 RMSD          COUNT                                  
   3   BOND      :   NULL           NULL                                  
   3   ANGLE     :   NULL           NULL                                  
   3   CHIRALITY :   NULL           NULL                                  
   3   PLANARITY :   NULL           NULL                                  
   3   DIHEDRAL  :   NULL           NULL                                  
   3                                                                      
   3  TLS DETAILS                                                         
   3   NUMBER OF TLS GROUPS  : 8                                          
   3   TLS GROUP : 1                                                      
   3    SELECTION: CHAIN 'A' AND (RESID 35 THROUGH 57 )                   
   3    ORIGIN FOR THE GROUP (A):  14.9178  59.0654  20.3178              
   3    T TENSOR                                                          
   3      T11:   0.9170 T22:   0.9230                                     
   3      T33:   1.8742 T12:   0.1387                                     
   3      T13:  -0.4187 T23:  -0.8520                                     
   3    L TENSOR                                                          
   3      L11:   0.4810 L22:   0.7439                                     
   3      L33:   3.3053 L12:   0.0344                                     
   3      L13:   0.2167 L23:  -1.5454                                     
   3    S TENSOR                                                          
   3      S11:   0.6652 S12:  -0.9691 S13:   0.6372                       
   3      S21:   0.8565 S22:   0.5322 S23:  -0.6937                       
   3      S31:  -0.5077 S32:  -0.3894 S33:   0.6699                       
   3   TLS GROUP : 2                                                      
   3    SELECTION: CHAIN 'A' AND (RESID 58 THROUGH 101 )                  
   3    ORIGIN FOR THE GROUP (A):  12.6293  41.8661   7.3468              
   3    T TENSOR                                                          
   3      T11:   0.6484 T22:   0.7773                                     
   3      T33:   0.7602 T12:   0.0373                                     
   3      T13:  -0.2236 T23:  -0.0301                                     
   3    L TENSOR                                                          
   3      L11:   3.9886 L22:   1.4015                                     
   3      L33:   2.5739 L12:  -0.7516                                     
   3      L13:  -0.1156 L23:   1.2300                                     
   3    S TENSOR                                                          
   3      S11:  -0.0897 S12:  -0.2062 S13:   1.1192                       
   3      S21:   0.0781 S22:   0.0505 S23:  -0.0422                       
   3      S31:  -0.1415 S32:  -0.2682 S33:   0.0007                       
   3   TLS GROUP : 3                                                      
   3    SELECTION: CHAIN 'A' AND (RESID 102 THROUGH 138 )                 
   3    ORIGIN FOR THE GROUP (A):  22.3858  27.6612  11.6550              
   3    T TENSOR                                                          
   3      T11:   0.8392 T22:   0.8315                                     
   3      T33:   0.5993 T12:   0.1046                                     
   3      T13:  -0.1662 T23:   0.0034                                     
   3    L TENSOR                                                          
   3      L11:   1.8151 L22:   2.2893                                     
   3      L33:   1.5807 L12:  -1.9538                                     
   3      L13:  -0.0274 L23:  -0.7309                                     
   3    S TENSOR                                                          
   3      S11:  -0.3370 S12:  -0.2914 S13:   0.2785                       
   3      S21:   0.7365 S22:   0.1984 S23:  -0.7514                       
   3      S31:   0.2700 S32:   0.6141 S33:  -0.0003                       
   3   TLS GROUP : 4                                                      
   3    SELECTION: CHAIN 'A' AND (RESID 139 THROUGH 186 )                 
   3    ORIGIN FOR THE GROUP (A):  14.9292  41.9250  -0.0144              
   3    T TENSOR                                                          
   3      T11:   0.7139 T22:   0.7074                                     
   3      T33:   0.7324 T12:   0.0395                                     
   3      T13:  -0.0694 T23:   0.0992                                     
   3    L TENSOR                                                          
   3      L11:   2.0054 L22:   2.6851                                     
   3      L33:   2.7312 L12:   0.2604                                     
   3      L13:   0.4994 L23:   0.0828                                     
   3    S TENSOR                                                          
   3      S11:   0.1417 S12:   0.3973 S13:   1.1534                       
   3      S21:  -0.2786 S22:  -0.3728 S23:  -0.7082                       
   3      S31:  -0.1360 S32:   0.0235 S33:   0.0012                       
   3   TLS GROUP : 5                                                      
   3    SELECTION: CHAIN 'A' AND (RESID 187 THROUGH 201 )                 
   3    ORIGIN FOR THE GROUP (A):   2.0083  34.7846   6.8392              
   3    T TENSOR                                                          
   3      T11:   0.7583 T22:   0.8406                                     
   3      T33:   0.6264 T12:  -0.0308                                     
   3      T13:  -0.0447 T23:  -0.0367                                     
   3    L TENSOR                                                          
   3      L11:   0.4737 L22:   0.4812                                     
   3      L33:   0.2274 L12:   0.1585                                     
   3      L13:  -0.1229 L23:   0.2382                                     
   3    S TENSOR                                                          
   3      S11:   0.2539 S12:  -0.3458 S13:  -0.5473                       
   3      S21:   0.1626 S22:  -0.1022 S23:   1.2187                       
   3      S31:   0.5052 S32:  -0.3301 S33:  -0.0102                       
   3   TLS GROUP : 6                                                      
   3    SELECTION: CHAIN 'A' AND (RESID 202 THROUGH 225 )                 
   3    ORIGIN FOR THE GROUP (A):  13.9951  41.8394  18.1001              
   3    T TENSOR                                                          
   3      T11:   0.8315 T22:   0.8903                                     
   3      T33:   0.9061 T12:   0.1156                                     
   3      T13:  -0.2525 T23:  -0.2222                                     
   3    L TENSOR                                                          
   3      L11:   1.2459 L22:   3.9036                                     
   3      L33:   2.2088 L12:  -0.8386                                     
   3      L13:   1.3237 L23:  -0.0753                                     
   3    S TENSOR                                                          
   3      S11:  -0.3198 S12:  -0.8815 S13:   0.9226                       
   3      S21:   0.4732 S22:   0.3242 S23:  -0.8261                       
   3      S31:   0.2785 S32:  -0.0554 S33:   0.0020                       
   3   TLS GROUP : 7                                                      
   3    SELECTION: CHAIN 'A' AND (RESID 226 THROUGH 255 )                 
   3    ORIGIN FOR THE GROUP (A):  13.7735  47.9082  16.8358              
   3    T TENSOR                                                          
   3      T11:   0.7601 T22:   0.7818                                     
   3      T33:   1.2864 T12:   0.0617                                     
   3      T13:  -0.4328 T23:  -0.4462                                     
   3    L TENSOR                                                          
   3      L11:   1.4344 L22:   2.4388                                     
   3      L33:   3.3369 L12:   0.0455                                     
   3      L13:   0.2006 L23:  -0.5202                                     
   3    S TENSOR                                                          
   3      S11:   0.2727 S12:  -0.5582 S13:   1.0504                       
   3      S21:   1.3410 S22:   0.4178 S23:  -0.9164                       
   3      S31:  -0.0634 S32:  -0.0754 S33:   0.3263                       
   3   TLS GROUP : 8                                                      
   3    SELECTION: CHAIN 'A' AND (RESID 256 THROUGH 273 )                 
   3    ORIGIN FOR THE GROUP (A):  12.2189  50.9207  24.5229              
   3    T TENSOR                                                          
   3      T11:   1.0272 T22:   1.2955                                     
   3      T33:   1.0839 T12:   0.2321                                     
   3      T13:  -0.4066 T23:  -0.5163                                     
   3    L TENSOR                                                          
   3      L11:   0.5445 L22:   2.8376                                     
   3      L33:   0.9533 L12:  -1.2067                                     
   3      L13:   0.7123 L23:  -1.6289                                     
   3    S TENSOR                                                          
   3      S11:  -0.0315 S12:  -1.5666 S13:  -0.4370                       
   3      S21:   1.3596 S22:   0.6827 S23:  -0.2188                       
   3      S31:  -0.0054 S32:  -0.3482 S33:   0.2369                       
   3                                                                      
   3  NCS DETAILS                                                         
   3   NUMBER OF NCS GROUPS : NULL                                        
   3                                                                      
   3  OTHER REFINEMENT REMARKS: NULL                                      
   4                                                                      
   4 7T7D COMPLIES WITH FORMAT V. 3.30, 13-JUL-11                         
 100                                                                      
 100 THIS ENTRY HAS BEEN PROCESSED BY RCSB ON 15-DEC-21.                  
 100 THE DEPOSITION ID IS D_1000261782.                                   
 200                                                                      
 200 EXPERIMENTAL DETAILS                                                 
 200  EXPERIMENT TYPE                : X-RAY DIFFRACTION                  
 200  DATE OF DATA COLLECTION        : 18-JUL-21                          
 200  TEMPERATURE           (KELVIN) : 100                                
 200  PH                             : 7.0                                
 200  NUMBER OF CRYSTALS USED        : 1                                  
 200                                                                      
 200  SYNCHROTRON              (Y/N) : Y                                  
 200  RADIATION SOURCE               : SSRL                               
 200  BEAMLINE                       : BL12-2                             
 200  X-RAY GENERATOR MODEL          : NULL                               
 200  MONOCHROMATIC OR LAUE    (M/L) : M                                  
 200  WAVELENGTH OR RANGE        (A) : 0.97949                            
 200  MONOCHROMATOR                  : NULL                               
 200  OPTICS                         : NULL                               
 200                                                                      
 200  DETECTOR TYPE                  : PIXEL                              
 200  DETECTOR MANUFACTURER          : DECTRIS PILATUS 6M                 
 200  INTENSITY-INTEGRATION SOFTWARE : XDS                                
 200  DATA SCALING SOFTWARE          : AIMLESS                            
 200                                                                      
 200  NUMBER OF UNIQUE REFLECTIONS   : 18431                              
 200  RESOLUTION RANGE HIGH      (A) : 2.650                              
 200  RESOLUTION RANGE LOW       (A) : 39.140                             
 200  REJECTION CRITERIA  (SIGMA(I)) : NULL                               
 200                                                                      
 200 OVERALL.                                                             
 200  COMPLETENESS FOR RANGE     (%) : 100.0                              
 200  DATA REDUNDANCY                : 14.70                              
 200  R MERGE                    (I) : NULL                               
 200  R SYM                      (I) : NULL                               
 200  <I/SIGMA(I)> FOR THE DATA SET  : 20.5000                            
 200                                                                      
 200 IN THE HIGHEST RESOLUTION SHELL.                                     
 200  HIGHEST RESOLUTION SHELL, RANGE HIGH (A) : 2.65                     
 200  HIGHEST RESOLUTION SHELL, RANGE LOW  (A) : 2.78                     
 200  COMPLETENESS FOR SHELL     (%) : NULL                               
 200  DATA REDUNDANCY IN SHELL       : NULL                               
 200  R MERGE FOR SHELL          (I) : NULL                               
 200  R SYM FOR SHELL            (I) : NULL                               
 200  <I/SIGMA(I)> FOR SHELL         : 1.600                              
 200                                                                      
 200 DIFFRACTION PROTOCOL: SINGLE WAVELENGTH                              
 200 METHOD USED TO DETERMINE THE STRUCTURE: MOLECULAR REPLACEMENT        
 200 SOFTWARE USED: MOLREP                                                
 200 STARTING MODEL: 4JF6                                                 
 200                                                                      
 200 REMARK: NULL                                                         
 280                                                                      
 280 CRYSTAL                                                              
 280 SOLVENT CONTENT, VS   (%): NULL                                      
 280 MATTHEWS COEFFICIENT, VM (ANGSTROMS**3/DA): NULL                     
 280                                                                      
 280 CRYSTALLIZATION CONDITIONS: 0.2 M SUCCINIC ACID, 20% PEG3350, PH     
 280  7.0, VAPOR DIFFUSION, SITTING DROP, TEMPERATURE 298K                
 290                                                                      
 290 CRYSTALLOGRAPHIC SYMMETRY                                            
 290 SYMMETRY OPERATORS FOR SPACE GROUP: I 4 2 2                          
 290                                                                      
 290      SYMOP   SYMMETRY                                                
 290     NNNMMM   OPERATOR                                                
 290       1555   X,Y,Z                                                   
 290       2555   -X,-Y,Z                                                 
 290       3555   -Y,X,Z                                                  
 290       4555   Y,-X,Z                                                  
 290       5555   -X,Y,-Z                                                 
 290       6555   X,-Y,-Z                                                 
 290       7555   Y,X,-Z                                                  
 290       8555   -Y,-X,-Z                                                
 290       9555   X+1/2,Y+1/2,Z+1/2                                       
 290      10555   -X+1/2,-Y+1/2,Z+1/2                                     
 290      11555   -Y+1/2,X+1/2,Z+1/2                                      
 290      12555   Y+1/2,-X+1/2,Z+1/2                                      
 290      13555   -X+1/2,Y+1/2,-Z+1/2                                     
 290      14555   X+1/2,-Y+1/2,-Z+1/2                                     
 290      15555   Y+1/2,X+1/2,-Z+1/2                                      
 290      16555   -Y+1/2,-X+1/2,-Z+1/2                                    
 290                                                                      
 290     WHERE NNN -> OPERATOR NUMBER                                     
 290           MMM -> TRANSLATION VECTOR                                  
 290                                                                      
 290 CRYSTALLOGRAPHIC SYMMETRY TRANSFORMATIONS                            
 290 THE FOLLOWING TRANSFORMATIONS OPERATE ON THE ATOM/HETATM             
 290 RECORDS IN THIS ENTRY TO PRODUCE CRYSTALLOGRAPHICALLY                
 290 RELATED MOLECULES.                                                   
 290   SMTRY1   1  1.000000  0.000000  0.000000        0.00000            
 290   SMTRY2   1  0.000000  1.000000  0.000000        0.00000            
 290   SMTRY3   1  0.000000  0.000000  1.000000        0.00000            
 290   SMTRY1   2 -1.000000  0.000000  0.000000        0.00000            
 290   SMTRY2   2  0.000000 -1.000000  0.000000        0.00000            
 290   SMTRY3   2  0.000000  0.000000  1.000000        0.00000            
 290   SMTRY1   3  0.000000 -1.000000  0.000000        0.00000            
 290   SMTRY2   3  1.000000  0.000000  0.000000        0.00000            
 290   SMTRY3   3  0.000000  0.000000  1.000000        0.00000            
 290   SMTRY1   4  0.000000  1.000000  0.000000        0.00000            
 290   SMTRY2   4 -1.000000  0.000000  0.000000        0.00000            
 290   SMTRY3   4  0.000000  0.000000  1.000000        0.00000            
 290   SMTRY1   5 -1.000000  0.000000  0.000000        0.00000            
 290   SMTRY2   5  0.000000  1.000000  0.000000        0.00000            
 290   SMTRY3   5  0.000000  0.000000 -1.000000        0.00000            
 290   SMTRY1   6  1.000000  0.000000  0.000000        0.00000            
 290   SMTRY2   6  0.000000 -1.000000  0.000000        0.00000            
 290   SMTRY3   6  0.000000  0.000000 -1.000000        0.00000            
 290   SMTRY1   7  0.000000  1.000000  0.000000        0.00000            
 290   SMTRY2   7  1.000000  0.000000  0.000000        0.00000            
 290   SMTRY3   7  0.000000  0.000000 -1.000000        0.00000            
 290   SMTRY1   8  0.000000 -1.000000  0.000000        0.00000            
 290   SMTRY2   8 -1.000000  0.000000  0.000000        0.00000            
 290   SMTRY3   8  0.000000  0.000000 -1.000000        0.00000            
 290   SMTRY1   9  1.000000  0.000000  0.000000       86.68100            
 290   SMTRY2   9  0.000000  1.000000  0.000000       86.68100            
 290   SMTRY3   9  0.000000  0.000000  1.000000       40.49050            
 290   SMTRY1  10 -1.000000  0.000000  0.000000       86.68100            
 290   SMTRY2  10  0.000000 -1.000000  0.000000       86.68100            
 290   SMTRY3  10  0.000000  0.000000  1.000000       40.49050            
 290   SMTRY1  11  0.000000 -1.000000  0.000000       86.68100            
 290   SMTRY2  11  1.000000  0.000000  0.000000       86.68100            
 290   SMTRY3  11  0.000000  0.000000  1.000000       40.49050            
 290   SMTRY1  12  0.000000  1.000000  0.000000       86.68100            
 290   SMTRY2  12 -1.000000  0.000000  0.000000       86.68100            
 290   SMTRY3  12  0.000000  0.000000  1.000000       40.49050            
 290   SMTRY1  13 -1.000000  0.000000  0.000000       86.68100            
 290   SMTRY2  13  0.000000  1.000000  0.000000       86.68100            
 290   SMTRY3  13  0.000000  0.000000 -1.000000       40.49050            
 290   SMTRY1  14  1.000000  0.000000  0.000000       86.68100            
 290   SMTRY2  14  0.000000 -1.000000  0.000000       86.68100            
 290   SMTRY3  14  0.000000  0.000000 -1.000000       40.49050            
 290   SMTRY1  15  0.000000  1.000000  0.000000       86.68100            
 290   SMTRY2  15  1.000000  0.000000  0.000000       86.68100            
 290   SMTRY3  15  0.000000  0.000000 -1.000000       40.49050            
 290   SMTRY1  16  0.000000 -1.000000  0.000000       86.68100            
 290   SMTRY2  16 -1.000000  0.000000  0.000000       86.68100            
 290   SMTRY3  16  0.000000  0.000000 -1.000000       40.49050            
 290                                                                      
 290 REMARK: NULL                                                         
 300                                                                      
 300 BIOMOLECULE: 1                                                       
 300 SEE REMARK 350 FOR THE AUTHOR PROVIDED AND/OR PROGRAM                
 300 GENERATED ASSEMBLY INFORMATION FOR THE STRUCTURE IN                  
 300 THIS ENTRY. THE REMARK MAY ALSO PROVIDE INFORMATION ON               
 300 BURIED SURFACE AREA.                                                 
 350                                                                      
 350 COORDINATES FOR A COMPLETE MULTIMER REPRESENTING THE KNOWN           
 350 BIOLOGICALLY SIGNIFICANT OLIGOMERIZATION STATE OF THE                
 350 MOLECULE CAN BE GENERATED BY APPLYING BIOMT TRANSFORMATIONS          
 350 GIVEN BELOW.  BOTH NON-CRYSTALLOGRAPHIC AND                          
 350 CRYSTALLOGRAPHIC OPERATIONS ARE GIVEN.                               
 350                                                                      
 350 BIOMOLECULE: 1                                                       
 350 AUTHOR DETERMINED BIOLOGICAL UNIT: MONOMERIC                         
 350 APPLY THE FOLLOWING TO CHAINS: A                                     
 350   BIOMT1   1  1.000000  0.000000  0.000000        0.00000            
 350   BIOMT2   1  0.000000  1.000000  0.000000        0.00000            
 350   BIOMT3   1  0.000000  0.000000  1.000000        0.00000            
 465                                                                      
 465 MISSING RESIDUES                                                     
 465 THE FOLLOWING RESIDUES WERE NOT LOCATED IN THE                       
 465 EXPERIMENT. (M=MODEL NUMBER; RES=RESIDUE NAME; C=CHAIN               
 465 IDENTIFIER; SSSEQ=SEQUENCE NUMBER; I=INSERTION CODE.)                
 465                                                                      
 465   M RES C SSSEQI                                                     
 465     GLN A    31                                                      
 465     ILE A    32                                                      
 465     VAL A    33                                                      
 465     GLN A    34                                                      
 500                                                                      
 500 GEOMETRY AND STEREOCHEMISTRY                                         
 500 SUBTOPIC: TORSION ANGLES                                             
 500                                                                      
 500 TORSION ANGLES OUTSIDE THE EXPECTED RAMACHANDRAN REGIONS:            
 500 (M=MODEL NUMBER; RES=RESIDUE NAME; C=CHAIN IDENTIFIER;               
 500 SSEQ=SEQUENCE NUMBER; I=INSERTION CODE).                             
 500                                                                      
 500 STANDARD TABLE:                                                      
 500 FORMAT:(10X,I3,1X,A3,1X,A1,I4,A1,4X,F7.2,3X,F7.2)                    
 500                                                                      
 500 EXPECTED VALUES: GJ KLEYWEGT AND TA JONES (1996). PHI/PSI-           
 500 CHOLOGY: RAMACHANDRAN REVISITED. STRUCTURE 4, 1395 - 1400            
 500                                                                      
 500  M RES CSSEQI        PSI       PHI                                   
 500    LYS A  59       -7.42     83.17                                   
 500    ALA A  78     -140.01     57.97                                   
 500    THR A  95     -170.40   -171.03                                   
 500    ASN A 209       54.63     22.74                                   
 500    TRP A 219       99.59   -161.58                                   
 500    SER A 252      -34.38    -37.09                                   
 500                                                                      
 500 REMARK: NULL                                                         

>  <DBREF>
 7T7D A   31   273  UNP    V5TGX0   V5TGX0_ACIBA    20    262             

>  <SEQRES>
   1 A  243  GLN ILE VAL GLN GLY HIS ASN GLN VAL ILE HIS GLN TYR          
   2 A  243  PHE ASP GLU LYS ASN THR SER GLY VAL LEU VAL ILE GLN          
   3 A  243  THR ASP LYS LYS ILE ASN LEU TYR GLY ASN ALA LEU SER          
   4 A  243  ARG ALA ASN THR GLU TYR VAL PRO ALA SER THR PHE KCX          
   5 A  243  MET LEU ASN ALA LEU ILE GLY LEU GLU ASN GLN LYS THR          
   6 A  243  ASP ILE ASN GLU ILE PHE LYS TRP LYS GLY GLU LYS ARG          
   7 A  243  SER PHE THR ALA TRP GLU LYS ASP MET THR LEU GLY GLU          
   8 A  243  ALA MET LYS LEU SER ALA VAL PRO VAL TYR GLN GLU LEU          
   9 A  243  ALA ARG ARG ILE GLY LEU ASP LEU MET GLN LYS GLU VAL          
  10 A  243  LYS ARG ILE GLY PHE GLY ASN ALA GLU ILE GLY GLN GLN          
  11 A  243  VAL ASP ASN PHE TRP LEU VAL GLY PRO LEU LYS VAL THR          
  12 A  243  PRO ILE GLN GLU VAL GLU PHE VAL SER GLN LEU ALA HIS          
  13 A  243  THR GLN LEU PRO PHE SER GLU LYS VAL GLN ALA ASN VAL          
  14 A  243  LYS ASN MET LEU LEU LEU GLU GLU SER ASN GLY TYR LYS          
  15 A  243  ILE PHE GLY LYS THR GLY TRP ALA MET ASP ILE LYS PRO          
  16 A  243  GLN VAL GLY TRP LEU THR GLY TRP VAL GLU GLN PRO ASP          
  17 A  243  GLY LYS ILE VAL ALA PHE ALA LEU ASN MET GLU MET ARG          
  18 A  243  SER GLU MET PRO ALA SER ILE ARG ASN GLU LEU LEU MET          
  19 A  243  LYS SER LEU LYS GLN LEU ASN ILE ILE                          

>  <MODRES>
 7T7D KCX A   82  LYS  MODIFIED RESIDUE                                   

>  <HET>
 KCX  A  82      12                                                       
 FDX  A 301      24                                                       

>  <HETNAM>
     KCX LYSINE NZ-CARBOXYLIC ACID                                        
     FDX (2R,4S)-2-(1,3-DIHYDROXYPROPAN-2-YL)-4-{[(3R,5R)-5-              
   2 FDX  (DIMETHYLCARBAMOYL)PYRROLIDIN-3-YL]SULFANYL}-3,4-               
   3 FDX  DIHYDRO-2H-PYRROLE-5-CARBOXYLIC ACID                            

>  <FORMUL>
   1  KCX    C7 H14 N2 O4                                                 
   2  FDX    C15 H25 N3 O6 S                                              
   3  HOH   *22(H2 O)                                                     

>  <HELIX>
   1 AA1 HIS A   36  LYS A   47  1                                  12    
   2 AA2 ALA A   67  THR A   73  5                                   7    
   3 AA3 PRO A   77  SER A   79  5                                   3    
   4 AA4 THR A   80  ASN A   92  1                                  13    
   5 AA5 PHE A  110  GLU A  114  5                                   5    
   6 AA6 LEU A  119  LEU A  125  1                                   7    
   7 AA7 ALA A  127  GLY A  151  1                                  25    
   8 AA8 ASN A  163  GLY A  168  1                                   6    
   9 AA9 THR A  173  HIS A  186  1                                  14    
  10 AB1 SER A  192  LEU A  203  1                                  12    
  11 AB2 SER A  257  LEU A  270  1                                  14    

>  <SHEET>
   1 AA1 6 LYS A  60  GLY A  65  0                                        
   2 AA1 6 GLY A  51  THR A  57 -1  N  LEU A  53   O  TYR A  64           
   3 AA1 6 ILE A 241  MET A 250 -1  O  ASN A 247   N  VAL A  52           
   4 AA1 6 GLN A 226  GLU A 235 -1  N  GLN A 226   O  MET A 250           
   5 AA1 6 TYR A 211  ALA A 220 -1  N  PHE A 214   O  TRP A 233           
   6 AA1 6 LEU A 204  SER A 208 -1  N  SER A 208   O  TYR A 211           
   1 AA2 2 ILE A 100  PHE A 101  0                                        
   2 AA2 2 MET A 117  THR A 118 -1  O  MET A 117   N  PHE A 101           

>  <LINK>
       OG  SER A  79                 C7  FDX A 301     1555   1555  1.46  
       C   PHE A  81                 N   KCX A  82     1555   1555  1.33  
       C   KCX A  82                 N   MET A  83     1555   1555  1.34  

>  <CISPEP>
   1 GLY A  168    PRO A  169          0         6.78                     
   2 LYS A  224    PRO A  225          0        -4.04                     

>  <ORIGX1>
      1.000000  0.000000  0.000000        0.00000                         

>  <ORIGX2>
      0.000000  1.000000  0.000000        0.00000                         

>  <ORIGX3>
      0.000000  0.000000  1.000000        0.00000                         

>  <SCALE1>
      0.005768  0.000000  0.000000        0.00000                         

>  <SCALE2>
      0.000000  0.005768  0.000000        0.00000                         

>  <SCALE3>
      0.000000  0.000000  0.012349        0.00000                         

>  <ANISOU>
  350  N   SER A  79     8347   9572   9287    342  -2437   -971       N  
  351  CA  SER A  79     8714   9955   9138    380  -2422   -914       C  
  352  C   SER A  79     8559   9787   9008    369  -2371   -834       C  
  353  O   SER A  79     8208   9443   8272    363  -2334   -747       O  
  354  CB  SER A  79     8828  10191   9004    483  -2477  -1159       C  
  355  OG  SER A  79     9920  11314   9937    519  -2533  -1207       O  

>  <MASTER>
      394    0    2   11    8    0    0    6 1958    1   39   19          

$$$$
