start_structures/Ligand_Substrate/Ligand_Complex_Stripped/FOS_1BLH.pdb
 OpenBabel08222315203D

 21 21  0  0  1  0  0  0  0  0999 V2000
    4.4310  -13.3550  -13.4670 N   0  0  0  0  0  0  0  0  0  0  0  0
    3.5420  -12.8990  -14.5130 C   0  0  2  0  0  0  0  0  0  0  0  0
    3.8620  -13.4450  -15.9230 C   0  0  0  0  0  0  0  0  0  0  0  0
    3.0400  -13.1940  -16.8040 O   0  0  0  0  0  0  0  0  0  0  0  0
    3.5150  -11.3770  -14.6280 C   0  0  0  0  0  0  0  0  0  0  0  0
    2.8040  -10.8410  -13.5870 O   0  0  0  0  0  0  0  0  0  0  0  0
    5.4010   -7.9360   -6.9160 C   0  0  0  0  0  0  0  0  0  0  0  0
    4.7190   -7.0470   -6.0320 C   0  0  0  0  0  0  0  0  0  0  0  0
    5.5070   -6.0750   -5.3480 C   0  0  0  0  0  0  0  0  0  0  0  0
    6.8910   -6.0610   -5.5510 C   0  0  0  0  0  0  0  0  0  0  0  0
    7.5430   -6.9310   -6.4010 C   0  0  0  0  0  0  0  0  0  0  0  0
    6.8020   -7.8990   -7.0940 C   0  0  0  0  0  0  0  0  0  0  0  0
    4.6010   -9.0010   -7.6250 C   0  0  0  0  0  0  0  0  0  0  0  0
    3.2890   -8.5380   -7.9350 O   0  0  0  0  0  0  0  0  0  0  0  0
    2.6720   -9.0770   -9.0160 C   0  0  0  0  0  0  0  0  0  0  0  0
    1.5220   -8.8090   -9.2100 O   0  0  0  0  0  0  0  0  0  0  0  0
    3.3160   -9.8630   -9.8910 N   0  0  0  0  0  0  0  0  0  0  0  0
    2.5500  -10.3520  -11.0000 C   0  0  0  0  0  0  0  0  0  0  0  0
    3.6900  -10.2160  -12.4020 P   0  0  2  0  0  0  0  0  0  0  0  0
    4.0340   -8.8660  -12.7990 O   0  0  0  0  0  0  0  0  0  0  0  0
    5.0050  -10.7330  -12.2710 O   0  0  0  0  0  0  0  0  0  0  0  0
  2  1  1  1  0  0  0
  3  2  1  0  0  0  0
  4  3  2  0  0  0  0
  5  2  1  0  0  0  0
  5  6  1  0  0  0  0
  6 19  1  0  0  0  0
  7  8  2  0  0  0  0
  7 12  1  0  0  0  0
  7 13  1  0  0  0  0
  8  9  1  0  0  0  0
  9 10  2  0  0  0  0
 10 11  1  0  0  0  0
 11 12  2  0  0  0  0
 13 14  1  0  0  0  0
 14 15  1  0  0  0  0
 15 16  2  0  0  0  0
 15 17  1  0  0  0  0
 17 18  1  0  0  0  0
 18 19  1  0  0  0  0
 19 20  2  6  0  0  0
 19 21  1  0  0  0  0
M  END
>  <HEADER>
    HYDROLASE(BETA-LACTAMASE)               30-SEP-93   1BLH              

>  <TITLE>
    STRUCTURE OF A PHOSPHONATE-INHIBITED BETA-LACTAMASE. AN               
   2 ANALOG OF THE TETRAHEDRAL TRANSITION STATE(SLASH)                    
   3 INTERMEDIATE OF BETA-LACTAM HYDROLYSIS                               

>  <COMPND>
    MOL_ID: 1;                                                            
   2 MOLECULE: BETA-LACTAMASE;                                            
   3 CHAIN: A;                                                            
   4 EC: 3.5.2.6;                                                         
   5 ENGINEERED: YES                                                      

>  <SOURCE>
    MOL_ID: 1;                                                            
   2 ORGANISM_SCIENTIFIC: STAPHYLOCOCCUS AUREUS;                          
   3 ORGANISM_TAXID: 1280                                                 

>  <KEYWDS>
    HYDROLASE(BETA-LACTAMASE)                                             

>  <EXPDTA>
    X-RAY DIFFRACTION                                                     

>  <AUTHOR>
    C.C.H.CHEN,O.HERZBERG                                                 

>  <REVDAT>
   3   24-FEB-09 1BLH    1       VERSN                                    
   2   01-APR-03 1BLH    1       JRNL                                     
   1   31-AUG-94 1BLH    0                                                

>  <JRNL>
      AUTH   C.C.CHEN,J.RAHIL,R.F.PRATT,O.HERZBERG                        
      TITL   STRUCTURE OF A PHOSPHONATE-INHIBITED                         
      TITL 2 BETA-LACTAMASE. AN ANALOG OF THE TETRAHEDRAL                 
      TITL 3 TRANSITION STATE/INTERMEDIATE OF BETA-LACTAM                 
      TITL 4 HYDROLYSIS.                                                  
      REF    J.MOL.BIOL.                   V. 234   165 1993              
      REFN                   ISSN 0022-2836                               
      PMID   8230196                                                      
      DOI    10.1006/JMBI.1993.1571                                       

>  <REMARK>
   1                                                                      
   1 REFERENCE 1                                                          
   1  AUTH   C.C.H.CHEN,O.HERZBERG                                        
   1  TITL   INHIBITION OF BETA-LACTAMASE BY CLAVULANATE.                 
   1  TITL 2 TRAPPED INTERMEDIATES IN CRYOCRYSTALLOGRAPHIC                
   1  TITL 3 STUDIES                                                      
   1  REF    J.MOL.BIOL.                   V. 224  1103 1992              
   1  REFN                   ISSN 0022-2836                               
   1 REFERENCE 2                                                          
   1  AUTH   O.HERZBERG                                                   
   1  TITL   REFINED CRYSTAL STRUCTURE OF BETA-LACTAMASE FROM             
   1  TITL 2 STAPHYLOCOCCUS AUREUS PC1 AT 2.0 ANGSTROMS                   
   1  TITL 3 RESOLUTION                                                   
   1  REF    J.MOL.BIOL.                   V. 217   701 1991              
   1  REFN                   ISSN 0022-2836                               
   1 REFERENCE 3                                                          
   1  AUTH   O.HERZBERG,G.KAPADIA,B.BLANCO,T.S.SMITH,A.COULSON            
   1  TITL   STRUCTURAL BASIS FOR THE INACTIVATION OF THE P54             
   1  TITL 2 MUTANT OF BETA-LACTAMASE FROM STAPHYLOCOCCUS                 
   1  TITL 3 AUREUS PC1                                                   
   1  REF    BIOCHEMISTRY                  V.  30  9504 1991              
   1  REFN                   ISSN 0006-2960                               
   1 REFERENCE 4                                                          
   1  AUTH   O.HERZBERG,J.MOULT                                           
   1  TITL   PENICILLIN-BINDING AND DEGRADING ENZYMES                     
   1  REF    CURR.OPIN.STRUCT.BIOL.        V.   1   946 1991              
   1  REFN                   ISSN 0959-440X                               
   1 REFERENCE 5                                                          
   1  AUTH   O.HERZBERG,J.MOULT                                           
   1  TITL   BACTERIAL RESISTANCE TO BETA-LACTAM ANTIBIOTICS.             
   1  TITL 2 CRYSTAL STRUCTURE OF BETA-LACTAMASE FROM                     
   1  TITL 3 STAPHYLOCOCCUS AUREUS PC1 AT 2.5 ANGSTROMS                   
   1  TITL 4 RESOLUTION                                                   
   1  REF    SCIENCE                       V. 236   694 1987              
   1  REFN                   ISSN 0036-8075                               
   1 REFERENCE 6                                                          
   1  AUTH   J.MOULT,L.SAWYER,O.HERZBERG,C.L.JONES,                       
   1  AUTH 2 A.F.W.COULSON,D.W.GREEN,M.M.HARDING,R.P.AMBLER               
   1  TITL   THE CRYSTAL STRUCTURE OF BETA-LACTAMASE FROM                 
   1  TITL 2 STAPHYLOCOCCUS AUREUS AT 0.5NM RESOLUTION                    
   1  REF    BIOCHEM.J.                    V. 225   167 1985              
   1  REFN                   ISSN 0264-6021                               
   2                                                                      
   2 RESOLUTION.    2.30 ANGSTROMS.                                       
   3                                                                      
   3 REFINEMENT.                                                          
   3   PROGRAM     : PROLSQ                                               
   3   AUTHORS     : KONNERT,HENDRICKSON                                  
   3                                                                      
   3  DATA USED IN REFINEMENT.                                            
   3   RESOLUTION RANGE HIGH (ANGSTROMS) : 2.30                           
   3   RESOLUTION RANGE LOW  (ANGSTROMS) : 8.00                           
   3   DATA CUTOFF            (SIGMA(F)) : 2.000                          
   3   COMPLETENESS FOR RANGE        (%) : NULL                           
   3   NUMBER OF REFLECTIONS             : NULL                           
   3                                                                      
   3  FIT TO DATA USED IN REFINEMENT.                                     
   3   CROSS-VALIDATION METHOD          : NULL                            
   3   FREE R VALUE TEST SET SELECTION  : NULL                            
   3   R VALUE     (WORKING + TEST SET) : 0.166                           
   3   R VALUE            (WORKING SET) : NULL                            
   3   FREE R VALUE                     : NULL                            
   3   FREE R VALUE TEST SET SIZE   (%) : NULL                            
   3   FREE R VALUE TEST SET COUNT      : NULL                            
   3                                                                      
   3  FIT/AGREEMENT OF MODEL WITH ALL DATA.                               
   3   R VALUE   (WORKING + TEST SET, NO CUTOFF) : NULL                   
   3   R VALUE          (WORKING SET, NO CUTOFF) : NULL                   
   3   FREE R VALUE                  (NO CUTOFF) : NULL                   
   3   FREE R VALUE TEST SET SIZE (%, NO CUTOFF) : NULL                   
   3   FREE R VALUE TEST SET COUNT   (NO CUTOFF) : NULL                   
   3   TOTAL NUMBER OF REFLECTIONS   (NO CUTOFF) : NULL                   
   3                                                                      
   3  NUMBER OF NON-HYDROGEN ATOMS USED IN REFINEMENT.                    
   3   PROTEIN ATOMS            : 1999                                    
   3   NUCLEIC ACID ATOMS       : 0                                       
   3   HETEROGEN ATOMS          : 15                                      
   3   SOLVENT ATOMS            : 195                                     
   3                                                                      
   3  B VALUES.                                                           
   3   FROM WILSON PLOT           (A**2) : NULL                           
   3   MEAN B VALUE      (OVERALL, A**2) : NULL                           
   3   OVERALL ANISOTROPIC B VALUE.                                       
   3    B11 (A**2) : NULL                                                 
   3    B22 (A**2) : NULL                                                 
   3    B33 (A**2) : NULL                                                 
   3    B12 (A**2) : NULL                                                 
   3    B13 (A**2) : NULL                                                 
   3    B23 (A**2) : NULL                                                 
   3                                                                      
   3  ESTIMATED COORDINATE ERROR.                                         
   3   ESD FROM LUZZATI PLOT        (A) : NULL                            
   3   ESD FROM SIGMAA              (A) : NULL                            
   3   LOW RESOLUTION CUTOFF        (A) : NULL                            
   3                                                                      
   3  RMS DEVIATIONS FROM IDEAL VALUES.                                   
   3   DISTANCE RESTRAINTS.                    RMS    SIGMA               
   3    BOND LENGTH                     (A) : 0.019 ; 0.025               
   3    ANGLE DISTANCE                  (A) : 0.040 ; 0.036               
   3    INTRAPLANAR 1-4 DISTANCE        (A) : 0.037 ; 0.040               
   3    H-BOND OR METAL COORDINATION    (A) : NULL  ; NULL                
   3                                                                      
   3   PLANE RESTRAINT                  (A) : 0.022 ; 0.030               
   3   CHIRAL-CENTER RESTRAINT       (A**3) : 0.187 ; 0.200               
   3                                                                      
   3   NON-BONDED CONTACT RESTRAINTS.                                     
   3    SINGLE TORSION                  (A) : 0.288 ; 0.400               
   3    MULTIPLE TORSION                (A) : 0.203 ; 0.400               
   3    H-BOND (X...Y)                  (A) : NULL  ; NULL                
   3    H-BOND (X-H...Y)                (A) : 0.226 ; 0.400               
   3                                                                      
   3   CONFORMATIONAL TORSION ANGLE RESTRAINTS.                           
   3    SPECIFIED                 (DEGREES) : NULL  ; NULL                
   3    PLANAR                    (DEGREES) : 3.900 ; 5.000               
   3    STAGGERED                 (DEGREES) : 21.900; 120.000             
   3    TRANSVERSE                (DEGREES) : NULL  ; NULL                
   3                                                                      
   3  ISOTROPIC THERMAL FACTOR RESTRAINTS.    RMS    SIGMA                
   3   MAIN-CHAIN BOND               (A**2) : 0.089 ; 0.112               
   3   MAIN-CHAIN ANGLE              (A**2) : 0.119 ; 0.138               
   3   SIDE-CHAIN BOND               (A**2) : 0.118 ; 0.138               
   3   SIDE-CHAIN ANGLE              (A**2) : 0.150 ; 0.159               
   3                                                                      
   3  OTHER REFINEMENT REMARKS: NULL                                      
   4                                                                      
   4 1BLH COMPLIES WITH FORMAT V. 3.15, 01-DEC-08                         
 100                                                                      
 100 THIS ENTRY HAS BEEN PROCESSED BY BNL.                                
 200                                                                      
 200 EXPERIMENTAL DETAILS                                                 
 200  EXPERIMENT TYPE                : X-RAY DIFFRACTION                  
 200  DATE OF DATA COLLECTION        : NULL                               
 200  TEMPERATURE           (KELVIN) : NULL                               
 200  PH                             : NULL                               
 200  NUMBER OF CRYSTALS USED        : NULL                               
 200                                                                      
 200  SYNCHROTRON              (Y/N) : NULL                               
 200  RADIATION SOURCE               : NULL                               
 200  BEAMLINE                       : NULL                               
 200  X-RAY GENERATOR MODEL          : NULL                               
 200  MONOCHROMATIC OR LAUE    (M/L) : NULL                               
 200  WAVELENGTH OR RANGE        (A) : NULL                               
 200  MONOCHROMATOR                  : NULL                               
 200  OPTICS                         : NULL                               
 200                                                                      
 200  DETECTOR TYPE                  : NULL                               
 200  DETECTOR MANUFACTURER          : NULL                               
 200  INTENSITY-INTEGRATION SOFTWARE : NULL                               
 200  DATA SCALING SOFTWARE          : NULL                               
 200                                                                      
 200  NUMBER OF UNIQUE REFLECTIONS   : NULL                               
 200  RESOLUTION RANGE HIGH      (A) : NULL                               
 200  RESOLUTION RANGE LOW       (A) : NULL                               
 200  REJECTION CRITERIA  (SIGMA(I)) : NULL                               
 200                                                                      
 200 OVERALL.                                                             
 200  COMPLETENESS FOR RANGE     (%) : NULL                               
 200  DATA REDUNDANCY                : NULL                               
 200  R MERGE                    (I) : NULL                               
 200  R SYM                      (I) : NULL                               
 200  <I/SIGMA(I)> FOR THE DATA SET  : NULL                               
 200                                                                      
 200 IN THE HIGHEST RESOLUTION SHELL.                                     
 200  HIGHEST RESOLUTION SHELL, RANGE HIGH (A) : NULL                     
 200  HIGHEST RESOLUTION SHELL, RANGE LOW  (A) : NULL                     
 200  COMPLETENESS FOR SHELL     (%) : NULL                               
 200  DATA REDUNDANCY IN SHELL       : NULL                               
 200  R MERGE FOR SHELL          (I) : NULL                               
 200  R SYM FOR SHELL            (I) : NULL                               
 200  <I/SIGMA(I)> FOR SHELL         : NULL                               
 200                                                                      
 200 DIFFRACTION PROTOCOL: NULL                                           
 200 METHOD USED TO DETERMINE THE STRUCTURE: NULL                         
 200 SOFTWARE USED: NULL                                                  
 200 STARTING MODEL: NULL                                                 
 200                                                                      
 200 REMARK: NULL                                                         
 280                                                                      
 280 CRYSTAL                                                              
 280 SOLVENT CONTENT, VS   (%): 59.80                                     
 280 MATTHEWS COEFFICIENT, VM (ANGSTROMS**3/DA): 3.06                     
 280                                                                      
 280 CRYSTALLIZATION CONDITIONS: NULL                                     
 290                                                                      
 290 CRYSTALLOGRAPHIC SYMMETRY                                            
 290 SYMMETRY OPERATORS FOR SPACE GROUP: I 2 2 2                          
 290                                                                      
 290      SYMOP   SYMMETRY                                                
 290     NNNMMM   OPERATOR                                                
 290       1555   X,Y,Z                                                   
 290       2555   -X,-Y,Z                                                 
 290       3555   -X,Y,-Z                                                 
 290       4555   X,-Y,-Z                                                 
 290       5555   X+1/2,Y+1/2,Z+1/2                                       
 290       6555   -X+1/2,-Y+1/2,Z+1/2                                     
 290       7555   -X+1/2,Y+1/2,-Z+1/2                                     
 290       8555   X+1/2,-Y+1/2,-Z+1/2                                     
 290                                                                      
 290     WHERE NNN -> OPERATOR NUMBER                                     
 290           MMM -> TRANSLATION VECTOR                                  
 290                                                                      
 290 CRYSTALLOGRAPHIC SYMMETRY TRANSFORMATIONS                            
 290 THE FOLLOWING TRANSFORMATIONS OPERATE ON THE ATOM/HETATM             
 290 RECORDS IN THIS ENTRY TO PRODUCE CRYSTALLOGRAPHICALLY                
 290 RELATED MOLECULES.                                                   
 290   SMTRY1   1  1.000000  0.000000  0.000000        0.00000            
 290   SMTRY2   1  0.000000  1.000000  0.000000        0.00000            
 290   SMTRY3   1  0.000000  0.000000  1.000000        0.00000            
 290   SMTRY1   2 -1.000000  0.000000  0.000000        0.00000            
 290   SMTRY2   2  0.000000 -1.000000  0.000000        0.00000            
 290   SMTRY3   2  0.000000  0.000000  1.000000        0.00000            
 290   SMTRY1   3 -1.000000  0.000000  0.000000        0.00000            
 290   SMTRY2   3  0.000000  1.000000  0.000000        0.00000            
 290   SMTRY3   3  0.000000  0.000000 -1.000000        0.00000            
 290   SMTRY1   4  1.000000  0.000000  0.000000        0.00000            
 290   SMTRY2   4  0.000000 -1.000000  0.000000        0.00000            
 290   SMTRY3   4  0.000000  0.000000 -1.000000        0.00000            
 290   SMTRY1   5  1.000000  0.000000  0.000000       26.98000            
 290   SMTRY2   5  0.000000  1.000000  0.000000       47.10000            
 290   SMTRY3   5  0.000000  0.000000  1.000000       69.46500            
 290   SMTRY1   6 -1.000000  0.000000  0.000000       26.98000            
 290   SMTRY2   6  0.000000 -1.000000  0.000000       47.10000            
 290   SMTRY3   6  0.000000  0.000000  1.000000       69.46500            
 290   SMTRY1   7 -1.000000  0.000000  0.000000       26.98000            
 290   SMTRY2   7  0.000000  1.000000  0.000000       47.10000            
 290   SMTRY3   7  0.000000  0.000000 -1.000000       69.46500            
 290   SMTRY1   8  1.000000  0.000000  0.000000       26.98000            
 290   SMTRY2   8  0.000000 -1.000000  0.000000       47.10000            
 290   SMTRY3   8  0.000000  0.000000 -1.000000       69.46500            
 290                                                                      
 290 REMARK: NULL                                                         
 300                                                                      
 300 BIOMOLECULE: 1                                                       
 300 SEE REMARK 350 FOR THE AUTHOR PROVIDED AND/OR PROGRAM                
 300 GENERATED ASSEMBLY INFORMATION FOR THE STRUCTURE IN                  
 300 THIS ENTRY. THE REMARK MAY ALSO PROVIDE INFORMATION ON               
 300 BURIED SURFACE AREA.                                                 
 350                                                                      
 350 COORDINATES FOR A COMPLETE MULTIMER REPRESENTING THE KNOWN           
 350 BIOLOGICALLY SIGNIFICANT OLIGOMERIZATION STATE OF THE                
 350 MOLECULE CAN BE GENERATED BY APPLYING BIOMT TRANSFORMATIONS          
 350 GIVEN BELOW.  BOTH NON-CRYSTALLOGRAPHIC AND                          
 350 CRYSTALLOGRAPHIC OPERATIONS ARE GIVEN.                               
 350                                                                      
 350 BIOMOLECULE: 1                                                       
 350 AUTHOR DETERMINED BIOLOGICAL UNIT: MONOMERIC                         
 350 SOFTWARE DETERMINED QUATERNARY STRUCTURE: MONOMERIC                  
 350 SOFTWARE USED: PISA                                                  
 350 APPLY THE FOLLOWING TO CHAINS: A                                     
 350   BIOMT1   1  1.000000  0.000000  0.000000        0.00000            
 350   BIOMT2   1  0.000000  1.000000  0.000000        0.00000            
 350   BIOMT3   1  0.000000  0.000000  1.000000        0.00000            
 375                                                                      
 375 SPECIAL POSITION                                                     
 375 THE FOLLOWING ATOMS ARE FOUND TO BE WITHIN 0.15 ANGSTROMS            
 375 OF A SYMMETRY RELATED ATOM AND ARE ASSUMED TO BE ON SPECIAL          
 375 POSITIONS.                                                           
 375                                                                      
 375 ATOM RES CSSEQI                                                      
 375      HOH A 494  LIES ON A SPECIAL POSITION.                          
 400                                                                      
 400 COMPOUND                                                             
 400                                                                      
 400 THE ACTIVE SITE SERINE IS SER 70.  THERE IS AN OXYANION              
 400 HOLE FORMED BY THE MAIN CHAIN NITROGEN ATOMS OF SER 70 AND           
 400 GLN 237, IN A SIMILAR MANNER TO THE SERINE PROTEASE                  
 400 STRUCTURES.                                                          
 470                                                                      
 470 MISSING ATOM                                                         
 470 THE FOLLOWING RESIDUES HAVE MISSING ATOMS(M=MODEL NUMBER;            
 470 RES=RESIDUE NAME; C=CHAIN IDENTIFIER; SSEQ=SEQUENCE NUMBER;          
 470 I=INSERTION CODE):                                                   
 470   M RES CSSEQI  ATOMS                                                
 470     GLU A  32    CG   CD   OE1  OE2                                  
 470     LYS A  99    CD   CE   NZ                                        
 470     LYS A 175    CD   CE   NZ                                        
 470     LYS A 177    CG   CD   CE   NZ                                   
 470     LYS A 205    CD   CE   NZ                                        
 470     LYS A 227    CB   CG   CD   CE   NZ                              
 470     ASP A 228    OD1  OD2                                            
 470     LYS A 253    CG   CD   CE   NZ                                   
 470     LYS A 273    CE   NZ                                             
 500                                                                      
 500 GEOMETRY AND STEREOCHEMISTRY                                         
 500 SUBTOPIC: COVALENT BOND ANGLES                                       
 500                                                                      
 500 THE STEREOCHEMICAL PARAMETERS OF THE FOLLOWING RESIDUES              
 500 HAVE VALUES WHICH DEVIATE FROM EXPECTED VALUES BY MORE               
 500 THAN 6*RMSD (M=MODEL NUMBER; RES=RESIDUE NAME; C=CHAIN               
 500 IDENTIFIER; SSEQ=SEQUENCE NUMBER; I=INSERTION CODE).                 
 500                                                                      
 500 STANDARD TABLE:                                                      
 500 FORMAT: (10X,I3,1X,A3,1X,A1,I4,A1,3(1X,A4,2X),12X,F5.1)              
 500                                                                      
 500 EXPECTED VALUES PROTEIN: ENGH AND HUBER, 1999                        
 500 EXPECTED VALUES NUCLEIC ACID: CLOWNEY ET AL 1996                     
 500                                                                      
 500  M RES CSSEQI ATM1   ATM2   ATM3                                     
 500    LEU A  33   CB  -  CA  -  C   ANGL. DEV. =  12.1 DEGREES          
 500    ASP A  35   CB  -  CG  -  OD1 ANGL. DEV. =   7.8 DEGREES          
 500    ASP A  50   CB  -  CG  -  OD1 ANGL. DEV. =  10.2 DEGREES          
 500    ASP A  50   CB  -  CG  -  OD2 ANGL. DEV. =  -8.4 DEGREES          
 500    TYR A  68   CB  -  CG  -  CD2 ANGL. DEV. =  -3.9 DEGREES          
 500    ASP A 100   CB  -  CG  -  OD1 ANGL. DEV. =   9.0 DEGREES          
 500    ASP A 100   CB  -  CG  -  OD2 ANGL. DEV. = -13.5 DEGREES          
 500    ALA A 104   N   -  CA  -  CB  ANGL. DEV. =  -9.7 DEGREES          
 500    LYS A 146   N   -  CA  -  CB  ANGL. DEV. = -11.6 DEGREES          
 500    ASP A 157   CB  -  CG  -  OD2 ANGL. DEV. =   5.7 DEGREES          
 500    TYR A 229   CB  -  CG  -  CD2 ANGL. DEV. =  -4.6 DEGREES          
 500    TYR A 229   CB  -  CG  -  CD1 ANGL. DEV. =   3.8 DEGREES          
 500    ASP A 233   CB  -  CG  -  OD2 ANGL. DEV. =   5.8 DEGREES          
 500    ARG A 244   NE  -  CZ  -  NH2 ANGL. DEV. =  -5.7 DEGREES          
 500    ASP A 246   CB  -  CG  -  OD1 ANGL. DEV. =   5.7 DEGREES          
 500    GLU A 257   CG  -  CD  -  OE2 ANGL. DEV. = -12.2 DEGREES          
 500    ASP A 272   CB  -  CG  -  OD2 ANGL. DEV. =   7.5 DEGREES          
 500                                                                      
 500 REMARK: NULL                                                         
 500                                                                      
 500 GEOMETRY AND STEREOCHEMISTRY                                         
 500 SUBTOPIC: TORSION ANGLES                                             
 500                                                                      
 500 TORSION ANGLES OUTSIDE THE EXPECTED RAMACHANDRAN REGIONS:            
 500 (M=MODEL NUMBER; RES=RESIDUE NAME; C=CHAIN IDENTIFIER;               
 500 SSEQ=SEQUENCE NUMBER; I=INSERTION CODE).                             
 500                                                                      
 500 STANDARD TABLE:                                                      
 500 FORMAT:(10X,I3,1X,A3,1X,A1,I4,A1,4X,F7.2,3X,F7.2)                    
 500                                                                      
 500 EXPECTED VALUES: GJ KLEYWEGT AND TA JONES (1996). PHI/PSI-           
 500 CHOLOGY: RAMACHANDRAN REVISITED. STRUCTURE 4, 1395 - 1400            
 500                                                                      
 500  M RES CSSEQI        PSI       PHI                                   
 500    ALA A  69     -143.60     60.13                                   
 500    TYR A 105       73.89     55.17                                   
 500    ILE A 194      -62.48   -107.33                                   
 500    LEU A 220     -128.87    -92.57                                   
 500                                                                      
 500 REMARK: NULL                                                         
 525                                                                      
 525 SOLVENT                                                              
 525                                                                      
 525 THE SOLVENT MOLECULES HAVE CHAIN IDENTIFIERS THAT                    
 525 INDICATE THE POLYMER CHAIN WITH WHICH THEY ARE MOST                  
 525 CLOSELY ASSOCIATED. THE REMARK LISTS ALL THE SOLVENT                 
 525 MOLECULES WHICH ARE MORE THAN 5A AWAY FROM THE                       
 525 NEAREST POLYMER CHAIN (M = MODEL NUMBER;                             
 525 RES=RESIDUE NAME; C=CHAIN IDENTIFIER; SSEQ=SEQUENCE                  
 525 NUMBER; I=INSERTION CODE):                                           
 525                                                                      
 525  M RES CSSEQI                                                        
 525    HOH A 315        DISTANCE =  5.12 ANGSTROMS                       
 525    HOH A 415        DISTANCE = 17.05 ANGSTROMS                       
 525    HOH A 421        DISTANCE = 10.66 ANGSTROMS                       
 525    HOH A 445        DISTANCE = 19.35 ANGSTROMS                       
 525    HOH A 466        DISTANCE =  5.68 ANGSTROMS                       
 800                                                                      
 800 SITE                                                                 
 800 SITE_IDENTIFIER: AC1                                                 
 800 EVIDENCE_CODE: SOFTWARE                                              
 800 SITE_DESCRIPTION: BINDING SITE FOR RESIDUE FOS A 291                 

>  <DBREF>
 1BLH A   31   290  UNP    P00807   BLAC_STAAU      25    281             

>  <SEQRES>
   1 A  257  LYS GLU LEU ASN ASP LEU GLU LYS LYS TYR ASN ALA HIS          
   2 A  257  ILE GLY VAL TYR ALA LEU ASP THR LYS SER GLY LYS GLU          
   3 A  257  VAL LYS PHE ASN SER ASP LYS ARG PHE ALA TYR ALA SER          
   4 A  257  THR SER LYS ALA ILE ASN SER ALA ILE LEU LEU GLU GLN          
   5 A  257  VAL PRO TYR ASN LYS LEU ASN LYS LYS VAL HIS ILE ASN          
   6 A  257  LYS ASP ASP ILE VAL ALA TYR SER PRO ILE LEU GLU LYS          
   7 A  257  TYR VAL GLY LYS ASP ILE THR LEU LYS ALA LEU ILE GLU          
   8 A  257  ALA SER MET THR TYR SER ASP ASN THR ALA ASN ASN LYS          
   9 A  257  ILE ILE LYS GLU ILE GLY GLY ILE LYS LYS VAL LYS GLN          
  10 A  257  ARG LEU LYS GLU LEU GLY ASP LYS VAL THR ASN PRO VAL          
  11 A  257  ARG TYR GLU ILE GLU LEU ASN TYR TYR SER PRO LYS SER          
  12 A  257  LYS LYS ASP THR SER THR PRO ALA ALA PHE GLY LYS THR          
  13 A  257  LEU ASN LYS LEU ILE ALA ASN GLY LYS LEU SER LYS GLU          
  14 A  257  ASN LYS LYS PHE LEU LEU ASP LEU MET LEU ASN ASN LYS          
  15 A  257  SER GLY ASP THR LEU ILE LYS ASP GLY VAL PRO LYS ASP          
  16 A  257  TYR LYS VAL ALA ASP LYS SER GLY GLN ALA ILE THR TYR          
  17 A  257  ALA SER ARG ASN ASP VAL ALA PHE VAL TYR PRO LYS GLY          
  18 A  257  GLN SER GLU PRO ILE VAL LEU VAL ILE PHE THR ASN LYS          
  19 A  257  ASP ASN LYS SER ASP LYS PRO ASN ASP LYS LEU ILE SER          
  20 A  257  GLU THR ALA LYS SER VAL MET LYS GLU PHE                      

>  <HET>
 FOS  A 291      15                                                       

>  <HETNAM>
     FOS [[N-(BENZYLOXYCARBONYL)AMINO]METHYL]PHOSPHATE                    

>  <FORMUL>
   2  FOS    C9 H12 N O5 P                                                
   3  HOH   *195(H2 O)                                                    

>  <HELIX>
   1  H1 LEU A   33  TYR A   40  1                                   8    
   2  H2 ALA A   69  LEU A   81  1                                  13    
   3  H3 TYR A   88  LYS A   90  5                                   3    
   4  H4 LYS A   99  ASP A  101  5                                   3    
   5  H5 LEU A  109  TYR A  112  1                                   4    
   6  H6 LEU A  119  TYR A  129  1                                  11    
   7  H7 ASN A  132  ILE A  142  1                                  11    
   8  H8 ILE A  145  GLU A  154  1                                  10    
   9  H9 GLU A  168  ASN A  170  1                                   3    
  10 H10 PRO A  183  LEU A  193  1                                  11    
  11 H11 LYS A  201  ASN A  213  1                                  13    
  12 H12 LYS A  215  GLY A  217  5                                   3    
  13 H13 ILE A  221  GLY A  224  1                                   4    
  14 H14 LYS A  277  MET A  287  1                                  11    

>  <SHEET>
   1  S1 5 GLU A  56  PHE A  60  0                                        
   2  S1 5 HIS A  43  ASP A  50 -1                                        
   3  S1 5 ILE A 259  ASN A 266 -1                                        
   4  S1 5 ARG A 244  TYR A 251 -1                                        
   5  S1 5 LYS A 230  GLN A 237 -1                                        
   1  S2 2 PHE A  66  ALA A  67  0                                        
   2  S2 2 THR A 180  SER A 181 -1                                        
   1  S3 2 LYS A  94  HIS A  96  0                                        
   2  S3 2 ASP A 116  THR A 118 -1                                        

>  <LINK>
       OG  SER A  70                 P   FOS A 291     1555   1555  1.61  

>  <CISPEP>
   1 GLU A  166    ILE A  167          0         1.57                     

>  <SITE>
   1 AC1 13 ALA A  69  SER A  70  LYS A  73  SER A 130                    
   2 AC1 13 ASN A 132  ASN A 170  GLY A 236  GLN A 237                    
   3 AC1 13 ALA A 238  ILE A 239  HOH A 338  HOH A 397                    
   4 AC1 13 HOH A 451                                                     

>  <ORIGX1>
      1.000000  0.000000  0.000000        0.00000                         

>  <ORIGX2>
      0.000000  1.000000  0.000000        0.00000                         

>  <ORIGX3>
      0.000000  0.000000  1.000000        0.00000                         

>  <SCALE1>
      0.018532  0.000000  0.000000        0.00000                         

>  <SCALE2>
      0.000000  0.010616  0.000000        0.00000                         

>  <SCALE3>
      0.000000  0.000000  0.007198        0.00000                         

>  <MASTER>
      360    1    1   14    9    0    4    6 2209    1   16   20          

$$$$
