start_structures/Ligand_Substrate/Ligand_Complex_Stripped/H9O_7DML.pdb
 OpenBabel08222315213D

 21 22  0  0  1  0  0  0  0  0999 V2000
   13.0900   13.7050   42.3140 N   0  0  0  0  0  0  0  0  0  0  0  0
   14.3870   14.1570   41.8100 C   0  0  2  0  0  0  0  0  0  0  0  0
   14.7450   15.5930   42.1930 C   0  0  0  0  0  0  0  0  0  0  0  0
   15.8800   16.0120   41.9110 O   0  0  0  0  0  0  0  0  0  0  0  0
   14.4530   14.0380   40.2940 C   0  0  0  0  0  0  0  0  0  0  0  0
   14.3800   12.6880   39.8570 O   0  0  0  0  0  0  0  0  0  0  0  0
   11.8450   12.7070   39.9680 O   0  0  0  0  0  0  0  0  0  0  0  0
   12.7470   12.1950   39.0960 B   0  0  1  0  0  0  0  0  0  0  0  0
   13.1530   13.0550   38.0410 O   0  0  0  0  0  0  0  0  0  0  0  0
   12.3600   12.5770   36.9180 C   0  0  1  0  0  0  0  0  0  0  0  0
   12.6850   13.3130   35.6090 C   0  0  0  0  0  0  0  0  0  0  0  0
   12.0590   14.6890   35.4670 C   0  0  0  0  0  0  0  0  0  0  0  0
   12.2160   15.3470   34.4010 O   0  0  0  0  0  0  0  0  0  0  0  0
   11.3960   15.1620   36.4360 O   0  5  0  0  0  0  0  0  0  0  0  0
   13.4470   12.8940   34.6380 C   0  0  0  0  0  0  0  0  0  0  0  0
   12.4960   11.0670   37.0730 C   0  0  0  0  0  0  0  0  0  0  0  0
   12.3650    9.9660   36.2200 C   0  0  0  0  0  0  0  0  0  0  0  0
   12.4870    8.6910   36.7480 C   0  0  0  0  0  0  0  0  0  0  0  0
   12.7090    8.4690   38.0880 C   0  0  0  0  0  0  0  0  0  0  0  0
   12.8100    9.5530   38.9370 C   0  0  0  0  0  0  0  0  0  0  0  0
   12.7270   10.8370   38.3820 C   0  0  0  0  0  0  0  0  0  0  0  0
  2  3  1  0  0  0  0
  2  1  1  6  0  0  0
  4  3  2  0  0  0  0
  5  2  1  0  0  0  0
  6  5  1  0  0  0  0
  8  7  1  1  0  0  0
  8  9  1  0  0  0  0
  8 21  1  0  0  0  0
  8  6  1  0  0  0  0
  9 10  1  0  0  0  0
 10 11  1  6  0  0  0
 10 16  1  0  0  0  0
 11 12  1  0  0  0  0
 11 15  2  0  0  0  0
 12 13  2  0  0  0  0
 12 14  1  0  0  0  0
 16 17  2  0  0  0  0
 16 21  1  0  0  0  0
 17 18  1  0  0  0  0
 18 19  2  0  0  0  0
 19 20  1  0  0  0  0
 20 21  2  0  0  0  0
M  CHG  1  14  -1
M  END
>  <HEADER>
    HYDROLASE                               04-DEC-20   7DML              

>  <TITLE>
    OXA-48 CARBAPENEMASE IN COMPLEX WITH (R)-2-(1-HYDROXY-1,3-            
   2 DIHYDROBENZO[C][1,2]OXABOROL-3-YL)ACRYLIC ACID                       

>  <COMPND>
    MOL_ID: 1;                                                            
   2 MOLECULE: BETA-LACTAMASE;                                            
   3 CHAIN: A, B, C, D;                                                   
   4 EC: 3.5.2.6;                                                         
   5 ENGINEERED: YES                                                      

>  <SOURCE>
    MOL_ID: 1;                                                            
   2 ORGANISM_SCIENTIFIC: KLEBSIELLA PNEUMONIAE;                          
   3 ORGANISM_TAXID: 573;                                                 
   4 GENE: BLA OXA-48, BLA_2, BLA_3, BLAOXA-48;                           
   5 EXPRESSION_SYSTEM: ESCHERICHIA COLI BL21(DE3);                       
   6 EXPRESSION_SYSTEM_TAXID: 469008                                      

>  <KEYWDS>
    CARBAPENEMASE, SERINE-BETA-LACTAMASE, ANTIBIOTIC, HYDROLASE           

>  <EXPDTA>
    X-RAY DIFFRACTION                                                     

>  <AUTHOR>
    G.-B.LI,Y.-H.YAN                                                      

>  <REVDAT>
   1   15-DEC-21 7DML    0                                                

>  <JRNL>
      AUTH   Y.C.XIAO,X.P.CHEN,J.DENG,Y.H.YAN,K.R.ZHU,G.LI,J.L.YU,J.BREM, 
      AUTH 2 F.CHEN,C.J.SCHOFIELD,G.B.LI                                  
      TITL   DESIGN AND ENANTIOSELECTIVE SYNTHESIS OF 3-(ALPHA-ACRYLIC    
      TITL 2 ACID) BENZOXABOROLES TO COMBAT CARBAPENEMASE RESISTANCE      
      REF    CHEM.COMMUN.(CAMB.)           V.  57  7709 2021              
      REFN                   ESSN 1364-548X                               
      DOI    10.1039/D1CC03026D                                           

>  <REMARK>
   2                                                                      
   2 RESOLUTION.    1.94 ANGSTROMS.                                       
   3                                                                      
   3 REFINEMENT.                                                          
   3   PROGRAM     : PHENIX 1.10                                          
   3   AUTHORS     : PAUL ADAMS,PAVEL AFONINE,VINCENT CHEN,IAN            
   3               : DAVIS,KRESHNA GOPAL,RALF GROSSE-KUNSTLEVE,           
   3               : LI-WEI HUNG,ROBERT IMMORMINO,TOM IOERGER,            
   3               : AIRLIE MCCOY,ERIK MCKEE,NIGEL MORIARTY,              
   3               : REETAL PAI,RANDY READ,JANE RICHARDSON,               
   3               : DAVID RICHARDSON,TOD ROMO,JIM SACCHETTINI,           
   3               : NICHOLAS SAUTER,JACOB SMITH,LAURENT                  
   3               : STORONI,TOM TERWILLIGER,PETER ZWART                  
   3                                                                      
   3    REFINEMENT TARGET : ML                                            
   3                                                                      
   3  DATA USED IN REFINEMENT.                                            
   3   RESOLUTION RANGE HIGH (ANGSTROMS) : 1.94                           
   3   RESOLUTION RANGE LOW  (ANGSTROMS) : 19.81                          
   3   MIN(FOBS/SIGMA_FOBS)              : 1.940                          
   3   COMPLETENESS FOR RANGE        (%) : 95.8                           
   3   NUMBER OF REFLECTIONS             : 77641                          
   3                                                                      
   3  FIT TO DATA USED IN REFINEMENT.                                     
   3   R VALUE     (WORKING + TEST SET) : 0.139                           
   3   R VALUE            (WORKING SET) : 0.138                           
   3   FREE R VALUE                     : 0.172                           
   3   FREE R VALUE TEST SET SIZE   (%) : 2.570                           
   3   FREE R VALUE TEST SET COUNT      : 1999                            
   3                                                                      
   3  FIT TO DATA USED IN REFINEMENT (IN BINS).                           
   3   BIN  RESOLUTION RANGE  COMPL.    NWORK NFREE   RWORK  RFREE        
   3     1 19.8090 -  4.6471    0.92     5289   138  0.1402 0.1402        
   3     2  4.6471 -  3.6964    0.95     5443   139  0.1225 0.1362        
   3     3  3.6964 -  3.2314    0.96     5419   149  0.1295 0.1700        
   3     4  3.2314 -  2.9370    0.96     5408   142  0.1465 0.1750        
   3     5  2.9370 -  2.7270    0.97     5476   147  0.1452 0.1685        
   3     6  2.7270 -  2.5666    0.97     5464   146  0.1379 0.1970        
   3     7  2.5666 -  2.4383    0.97     5466   147  0.1350 0.1810        
   3     8  2.4383 -  2.3324    0.98     5502   139  0.1379 0.1763        
   3     9  2.3324 -  2.2427    0.98     5491   145  0.1395 0.2021        
   3    10  2.2427 -  2.1654    0.98     5505   147  0.1394 0.1850        
   3    11  2.1654 -  2.0978    0.98     5550   147  0.1396 0.2140        
   3    12  2.0978 -  2.0379    0.98     5521   148  0.1387 0.1762        
   3    13  2.0379 -  1.9843    0.98     5523   140  0.1440 0.1891        
   3    14  1.9843 -  1.9360    0.82     4585   125  0.1785 0.2387        
   3                                                                      
   3  BULK SOLVENT MODELLING.                                             
   3   METHOD USED        : FLAT BULK SOLVENT MODEL                       
   3   SOLVENT RADIUS     : 1.11                                          
   3   SHRINKAGE RADIUS   : 0.90                                          
   3   K_SOL              : NULL                                          
   3   B_SOL              : NULL                                          
   3                                                                      
   3  ERROR ESTIMATES.                                                    
   3   COORDINATE ERROR (MAXIMUM-LIKELIHOOD BASED)     : 0.180            
   3   PHASE ERROR (DEGREES, MAXIMUM-LIKELIHOOD BASED) : 16.830           
   3                                                                      
   3  B VALUES.                                                           
   3   FROM WILSON PLOT           (A**2) : 17.15                          
   3   MEAN B VALUE      (OVERALL, A**2) : 20.78                          
   3   OVERALL ANISOTROPIC B VALUE.                                       
   3    B11 (A**2) : NULL                                                 
   3    B22 (A**2) : NULL                                                 
   3    B33 (A**2) : NULL                                                 
   3    B12 (A**2) : NULL                                                 
   3    B13 (A**2) : NULL                                                 
   3    B23 (A**2) : NULL                                                 
   3                                                                      
   3  TWINNING INFORMATION.                                               
   3   FRACTION: NULL                                                     
   3   OPERATOR: NULL                                                     
   3                                                                      
   3  DEVIATIONS FROM IDEAL VALUES.                                       
   3                 RMSD          COUNT                                  
   3   BOND      :  0.010           8192                                  
   3   ANGLE     :  1.100          11097                                  
   3   CHIRALITY :  0.110           1159                                  
   3   PLANARITY :  0.006           1429                                  
   3   DIHEDRAL  : 21.092           4801                                  
   3                                                                      
   3  TLS DETAILS                                                         
   3   NUMBER OF TLS GROUPS  : NULL                                       
   3                                                                      
   3  NCS DETAILS                                                         
   3   NUMBER OF NCS GROUPS : NULL                                        
   3                                                                      
   3  OTHER REFINEMENT REMARKS: NULL                                      
   4                                                                      
   4 7DML COMPLIES WITH FORMAT V. 3.30, 13-JUL-11                         
 100                                                                      
 100 THIS ENTRY HAS BEEN PROCESSED BY PDBJ ON 08-DEC-20.                  
 100 THE DEPOSITION ID IS D_1300019703.                                   
 200                                                                      
 200 EXPERIMENTAL DETAILS                                                 
 200  EXPERIMENT TYPE                : X-RAY DIFFRACTION                  
 200  DATE OF DATA COLLECTION        : 10-DEC-19                          
 200  TEMPERATURE           (KELVIN) : 195                                
 200  PH                             : 7.5                                
 200  NUMBER OF CRYSTALS USED        : 1                                  
 200                                                                      
 200  SYNCHROTRON              (Y/N) : Y                                  
 200  RADIATION SOURCE               : SSRF                               
 200  BEAMLINE                       : BL19U1                             
 200  X-RAY GENERATOR MODEL          : NULL                               
 200  MONOCHROMATIC OR LAUE    (M/L) : M                                  
 200  WAVELENGTH OR RANGE        (A) : 0.97918                            
 200  MONOCHROMATOR                  : NULL                               
 200  OPTICS                         : NULL                               
 200                                                                      
 200  DETECTOR TYPE                  : PIXEL                              
 200  DETECTOR MANUFACTURER          : DECTRIS PILATUS3 X CDTE 1M         
 200  INTENSITY-INTEGRATION SOFTWARE : NULL                               
 200  DATA SCALING SOFTWARE          : NULL                               
 200                                                                      
 200  NUMBER OF UNIQUE REFLECTIONS   : 79729                              
 200  RESOLUTION RANGE HIGH      (A) : 1.936                              
 200  RESOLUTION RANGE LOW       (A) : 19.810                             
 200  REJECTION CRITERIA  (SIGMA(I)) : NULL                               
 200                                                                      
 200 OVERALL.                                                             
 200  COMPLETENESS FOR RANGE     (%) : 98.3                               
 200  DATA REDUNDANCY                : 6.700                              
 200  R MERGE                    (I) : NULL                               
 200  R SYM                      (I) : NULL                               
 200  <I/SIGMA(I)> FOR THE DATA SET  : 20.8000                            
 200                                                                      
 200 IN THE HIGHEST RESOLUTION SHELL.                                     
 200  HIGHEST RESOLUTION SHELL, RANGE HIGH (A) : 1.94                     
 200  HIGHEST RESOLUTION SHELL, RANGE LOW  (A) : 2.01                     
 200  COMPLETENESS FOR SHELL     (%) : NULL                               
 200  DATA REDUNDANCY IN SHELL       : NULL                               
 200  R MERGE FOR SHELL          (I) : NULL                               
 200  R SYM FOR SHELL            (I) : NULL                               
 200  <I/SIGMA(I)> FOR SHELL         : NULL                               
 200                                                                      
 200 DIFFRACTION PROTOCOL: SINGLE WAVELENGTH                              
 200 METHOD USED TO DETERMINE THE STRUCTURE: MOLECULAR REPLACEMENT        
 200 SOFTWARE USED: PHASER 2.6.0                                          
 200 STARTING MODEL: 6P98                                                 
 200                                                                      
 200 REMARK: NULL                                                         
 280                                                                      
 280 CRYSTAL                                                              
 280 SOLVENT CONTENT, VS   (%): 45.98                                     
 280 MATTHEWS COEFFICIENT, VM (ANGSTROMS**3/DA): 2.28                     
 280                                                                      
 280 CRYSTALLIZATION CONDITIONS: 0.1 M HEPES PH 7.5, 5% 1-BUTANOL, 11     
 280  -17% (V/V) POLYETHYLENE GLYCOL 8000, VAPOR DIFFUSION, HANGING       
 280  DROP, TEMPERATURE 293K                                              
 290                                                                      
 290 CRYSTALLOGRAPHIC SYMMETRY                                            
 290 SYMMETRY OPERATORS FOR SPACE GROUP: P 1 21 1                         
 290                                                                      
 290      SYMOP   SYMMETRY                                                
 290     NNNMMM   OPERATOR                                                
 290       1555   X,Y,Z                                                   
 290       2555   -X,Y+1/2,-Z                                             
 290                                                                      
 290     WHERE NNN -> OPERATOR NUMBER                                     
 290           MMM -> TRANSLATION VECTOR                                  
 290                                                                      
 290 CRYSTALLOGRAPHIC SYMMETRY TRANSFORMATIONS                            
 290 THE FOLLOWING TRANSFORMATIONS OPERATE ON THE ATOM/HETATM             
 290 RECORDS IN THIS ENTRY TO PRODUCE CRYSTALLOGRAPHICALLY                
 290 RELATED MOLECULES.                                                   
 290   SMTRY1   1  1.000000  0.000000  0.000000        0.00000            
 290   SMTRY2   1  0.000000  1.000000  0.000000        0.00000            
 290   SMTRY3   1  0.000000  0.000000  1.000000        0.00000            
 290   SMTRY1   2 -1.000000  0.000000  0.000000        0.00000            
 290   SMTRY2   2  0.000000  1.000000  0.000000       52.93250            
 290   SMTRY3   2  0.000000  0.000000 -1.000000        0.00000            
 290                                                                      
 290 REMARK: NULL                                                         
 300                                                                      
 300 BIOMOLECULE: 1, 2, 3, 4                                              
 300 SEE REMARK 350 FOR THE AUTHOR PROVIDED AND/OR PROGRAM                
 300 GENERATED ASSEMBLY INFORMATION FOR THE STRUCTURE IN                  
 300 THIS ENTRY. THE REMARK MAY ALSO PROVIDE INFORMATION ON               
 300 BURIED SURFACE AREA.                                                 
 350                                                                      
 350 COORDINATES FOR A COMPLETE MULTIMER REPRESENTING THE KNOWN           
 350 BIOLOGICALLY SIGNIFICANT OLIGOMERIZATION STATE OF THE                
 350 MOLECULE CAN BE GENERATED BY APPLYING BIOMT TRANSFORMATIONS          
 350 GIVEN BELOW.  BOTH NON-CRYSTALLOGRAPHIC AND                          
 350 CRYSTALLOGRAPHIC OPERATIONS ARE GIVEN.                               
 350                                                                      
 350 BIOMOLECULE: 1                                                       
 350 AUTHOR DETERMINED BIOLOGICAL UNIT: MONOMERIC                         
 350 APPLY THE FOLLOWING TO CHAINS: A                                     
 350   BIOMT1   1  1.000000  0.000000  0.000000        0.00000            
 350   BIOMT2   1  0.000000  1.000000  0.000000        0.00000            
 350   BIOMT3   1  0.000000  0.000000  1.000000        0.00000            
 350                                                                      
 350 BIOMOLECULE: 2                                                       
 350 AUTHOR DETERMINED BIOLOGICAL UNIT: MONOMERIC                         
 350 APPLY THE FOLLOWING TO CHAINS: B                                     
 350   BIOMT1   1  1.000000  0.000000  0.000000        0.00000            
 350   BIOMT2   1  0.000000  1.000000  0.000000        0.00000            
 350   BIOMT3   1  0.000000  0.000000  1.000000        0.00000            
 350                                                                      
 350 BIOMOLECULE: 3                                                       
 350 AUTHOR DETERMINED BIOLOGICAL UNIT: MONOMERIC                         
 350 APPLY THE FOLLOWING TO CHAINS: C                                     
 350   BIOMT1   1  1.000000  0.000000  0.000000        0.00000            
 350   BIOMT2   1  0.000000  1.000000  0.000000        0.00000            
 350   BIOMT3   1  0.000000  0.000000  1.000000        0.00000            
 350                                                                      
 350 BIOMOLECULE: 4                                                       
 350 AUTHOR DETERMINED BIOLOGICAL UNIT: MONOMERIC                         
 350 APPLY THE FOLLOWING TO CHAINS: D                                     
 350   BIOMT1   1  1.000000  0.000000  0.000000        0.00000            
 350   BIOMT2   1  0.000000  1.000000  0.000000        0.00000            
 350   BIOMT3   1  0.000000  0.000000  1.000000        0.00000            
 465                                                                      
 465 MISSING RESIDUES                                                     
 465 THE FOLLOWING RESIDUES WERE NOT LOCATED IN THE                       
 465 EXPERIMENT. (M=MODEL NUMBER; RES=RESIDUE NAME; C=CHAIN               
 465 IDENTIFIER; SSSEQ=SEQUENCE NUMBER; I=INSERTION CODE.)                
 465                                                                      
 465   M RES C SSSEQI                                                     
 465     MET A     1                                                      
 465     ARG A     2                                                      
 465     VAL A     3                                                      
 465     LEU A     4                                                      
 465     ALA A     5                                                      
 465     LEU A     6                                                      
 465     SER A     7                                                      
 465     ALA A     8                                                      
 465     VAL A     9                                                      
 465     PHE A    10                                                      
 465     LEU A    11                                                      
 465     VAL A    12                                                      
 465     ALA A    13                                                      
 465     SER A    14                                                      
 465     ILE A    15                                                      
 465     ILE A    16                                                      
 465     GLY A    17                                                      
 465     MET A    18                                                      
 465     PRO A    19                                                      
 465     ALA A    20                                                      
 465     VAL A    21                                                      
 465     ALA A    22                                                      
 465     LYS A    23                                                      
 465     GLU A    24                                                      
 465     MET B     1                                                      
 465     ARG B     2                                                      
 465     VAL B     3                                                      
 465     LEU B     4                                                      
 465     ALA B     5                                                      
 465     LEU B     6                                                      
 465     SER B     7                                                      
 465     ALA B     8                                                      
 465     VAL B     9                                                      
 465     PHE B    10                                                      
 465     LEU B    11                                                      
 465     VAL B    12                                                      
 465     ALA B    13                                                      
 465     SER B    14                                                      
 465     ILE B    15                                                      
 465     ILE B    16                                                      
 465     GLY B    17                                                      
 465     MET B    18                                                      
 465     PRO B    19                                                      
 465     ALA B    20                                                      
 465     VAL B    21                                                      
 465     ALA B    22                                                      
 465     LYS B    23                                                      
 465     GLU B    24                                                      
 465     MET C     1                                                      
 465     ARG C     2                                                      
 465     VAL C     3                                                      
 465     LEU C     4                                                      
 465     ALA C     5                                                      
 465     LEU C     6                                                      
 465     SER C     7                                                      
 465     ALA C     8                                                      
 465     VAL C     9                                                      
 465     PHE C    10                                                      
 465     LEU C    11                                                      
 465     VAL C    12                                                      
 465     ALA C    13                                                      
 465     SER C    14                                                      
 465     ILE C    15                                                      
 465     ILE C    16                                                      
 465     GLY C    17                                                      
 465     MET C    18                                                      
 465     PRO C    19                                                      
 465     ALA C    20                                                      
 465     VAL C    21                                                      
 465     ALA C    22                                                      
 465     LYS C    23                                                      
 465     GLU C    24                                                      
 465     MET D     1                                                      
 465     ARG D     2                                                      
 465     VAL D     3                                                      
 465     LEU D     4                                                      
 465     ALA D     5                                                      
 465     LEU D     6                                                      
 465     SER D     7                                                      
 465     ALA D     8                                                      
 465     VAL D     9                                                      
 465     PHE D    10                                                      
 465     LEU D    11                                                      
 465     VAL D    12                                                      
 465     ALA D    13                                                      
 465     SER D    14                                                      
 465     ILE D    15                                                      
 465     ILE D    16                                                      
 465     GLY D    17                                                      
 465     MET D    18                                                      
 465     PRO D    19                                                      
 465     ALA D    20                                                      
 465     VAL D    21                                                      
 465     ALA D    22                                                      
 465     LYS D    23                                                      
 465     GLU D    24                                                      
 500                                                                      
 500 GEOMETRY AND STEREOCHEMISTRY                                         
 500 SUBTOPIC: CLOSE CONTACTS IN SAME ASYMMETRIC UNIT                     
 500                                                                      
 500 THE FOLLOWING ATOMS ARE IN CLOSE CONTACT.                            
 500                                                                      
 500  ATM1  RES C  SSEQI   ATM2  RES C  SSEQI           DISTANCE          
 500   OG   SER B    70     B02  H9O B   301              1.76            
 500   OG   SER C    70     B02  H9O C   301              1.77            
 500   OG   SER D    70     B02  H9O D   301              1.80            
 500   OG   SER A    70     B02  H9O A   301              1.87            
 500   O    HOH C   541     O    HOH C   674              1.91            
 500   O    HOH D   524     O    HOH D   564              1.95            
 500   O    HOH C   499     O    HOH C   600              2.03            
 500   O    HOH B   561     O    HOH B   607              2.03            
 500   O    HOH A   426     O    HOH A   619              2.03            
 500   O    HOH A   532     O    HOH A   615              2.03            
 500   OD1  ASP D   230     O    HOH D   401              2.06            
 500   O    HOH B   584     O    HOH B   597              2.06            
 500   O    HOH B   576     O    HOH B   615              2.07            
 500   O    HOH A   541     O    HOH A   643              2.07            
 500   O    HOH D   557     O    HOH D   559              2.08            
 500   O    HOH C   687     O    HOH C   699              2.08            
 500   N    TRP D    25     O    HOH D   402              2.09            
 500   O    HOH C   507     O    HOH C   574              2.09            
 500   O    HOH A   578     O    HOH A   615              2.10            
 500   OE2  GLU A   216     O    HOH A   401              2.13            
 500   O    HOH A   441     O    HOH A   639              2.13            
 500   O    HOH D   524     O    HOH D   540              2.15            
 500   O    HOH C   402     O    HOH C   425              2.15            
 500   N    TRP B    25     O    HOH B   401              2.15            
 500   O    HOH D   516     O    HOH D   545              2.16            
 500   O    HOH B   502     O    HOH B   576              2.17            
 500   O    HOH A   443     O    HOH C   422              2.18            
 500   O    HOH B   610     O    HOH B   614              2.19            
 500                                                                      
 500 REMARK: NULL                                                         
 500                                                                      
 500 GEOMETRY AND STEREOCHEMISTRY                                         
 500 SUBTOPIC: CLOSE CONTACTS                                             
 500                                                                      
 500 THE FOLLOWING ATOMS THAT ARE RELATED BY CRYSTALLOGRAPHIC             
 500 SYMMETRY ARE IN CLOSE CONTACT.  AN ATOM LOCATED WITHIN 0.15          
 500 ANGSTROMS OF A SYMMETRY RELATED ATOM IS ASSUMED TO BE ON A           
 500 SPECIAL POSITION AND IS, THEREFORE, LISTED IN REMARK 375             
 500 INSTEAD OF REMARK 500.  ATOMS WITH NON-BLANK ALTERNATE               
 500 LOCATION INDICATORS ARE NOT INCLUDED IN THE CALCULATIONS.            
 500                                                                      
 500 DISTANCE CUTOFF:                                                     
 500 2.2 ANGSTROMS FOR CONTACTS NOT INVOLVING HYDROGEN ATOMS              
 500 1.6 ANGSTROMS FOR CONTACTS INVOLVING HYDROGEN ATOMS                  
 500                                                                      
 500  ATM1  RES C  SSEQI   ATM2  RES C  SSEQI  SSYMOP   DISTANCE          
 500   O    HOH A   593     O    HOH C   677     2556     1.95            
 500   O    HOH A   509     O    HOH C   658     2656     2.11            
 500   O    HOH A   470     O    HOH B   532     1655     2.12            
 500   O    HOH A   509     O    HOH C   672     2656     2.19            
 500                                                                      
 500 REMARK: NULL                                                         
 500                                                                      
 500 GEOMETRY AND STEREOCHEMISTRY                                         
 500 SUBTOPIC: COVALENT BOND ANGLES                                       
 500                                                                      
 500 THE STEREOCHEMICAL PARAMETERS OF THE FOLLOWING RESIDUES              
 500 HAVE VALUES WHICH DEVIATE FROM EXPECTED VALUES BY MORE               
 500 THAN 6*RMSD (M=MODEL NUMBER; RES=RESIDUE NAME; C=CHAIN               
 500 IDENTIFIER; SSEQ=SEQUENCE NUMBER; I=INSERTION CODE).                 
 500                                                                      
 500 STANDARD TABLE:                                                      
 500 FORMAT: (10X,I3,1X,A3,1X,A1,I4,A1,3(1X,A4,2X),12X,F5.1)              
 500                                                                      
 500 EXPECTED VALUES PROTEIN: ENGH AND HUBER, 1999                        
 500 EXPECTED VALUES NUCLEIC ACID: CLOWNEY ET AL 1996                     
 500                                                                      
 500  M RES CSSEQI ATM1   ATM2   ATM3                                     
 500    VAL D 153   CG1 -  CB  -  CG2 ANGL. DEV. =  12.8 DEGREES          
 500                                                                      
 500 REMARK: NULL                                                         
 500                                                                      
 500 GEOMETRY AND STEREOCHEMISTRY                                         
 500 SUBTOPIC: TORSION ANGLES                                             
 500                                                                      
 500 TORSION ANGLES OUTSIDE THE EXPECTED RAMACHANDRAN REGIONS:            
 500 (M=MODEL NUMBER; RES=RESIDUE NAME; C=CHAIN IDENTIFIER;               
 500 SSEQ=SEQUENCE NUMBER; I=INSERTION CODE).                             
 500                                                                      
 500 STANDARD TABLE:                                                      
 500 FORMAT:(10X,I3,1X,A3,1X,A1,I4,A1,4X,F7.2,3X,F7.2)                    
 500                                                                      
 500 EXPECTED VALUES: GJ KLEYWEGT AND TA JONES (1996). PHI/PSI-           
 500 CHOLOGY: RAMACHANDRAN REVISITED. STRUCTURE 4, 1395 - 1400            
 500                                                                      
 500  M RES CSSEQI        PSI       PHI                                   
 500    ALA A  69     -139.33     45.23                                   
 500    ASN A 106       51.89    -92.73                                   
 500    GLU A 147       19.85     58.46                                   
 500    SER A 155        6.61   -150.43                                   
 500    ASP A 159       22.82   -148.83                                   
 500    ALA B  69     -135.43     44.56                                   
 500    ASN B 106       56.41    -92.70                                   
 500    ASP B 159       18.75   -154.40                                   
 500    ASN C  58       95.48   -165.13                                   
 500    ALA C  69     -133.96     46.97                                   
 500    ASP C 159       21.28   -156.29                                   
 500    ALA D  69     -137.94     47.74                                   
 500    ASN D 106       51.51    -92.36                                   
 500    ASP D 159       19.83   -145.21                                   
 500                                                                      
 500 REMARK: NULL                                                         

>  <DBREF>
 7DML A    1   265  UNP    Q6XEC0   Q6XEC0_KLEPN     1    265             
 7DML B    1   265  UNP    Q6XEC0   Q6XEC0_KLEPN     1    265             
 7DML C    1   265  UNP    Q6XEC0   Q6XEC0_KLEPN     1    265             
 7DML D    1   265  UNP    Q6XEC0   Q6XEC0_KLEPN     1    265             

>  <SEQRES>
   1 A  265  MET ARG VAL LEU ALA LEU SER ALA VAL PHE LEU VAL ALA          
   2 A  265  SER ILE ILE GLY MET PRO ALA VAL ALA LYS GLU TRP GLN          
   3 A  265  GLU ASN LYS SER TRP ASN ALA HIS PHE THR GLU HIS LYS          
   4 A  265  SER GLN GLY VAL VAL VAL LEU TRP ASN GLU ASN LYS GLN          
   5 A  265  GLN GLY PHE THR ASN ASN LEU LYS ARG ALA ASN GLN ALA          
   6 A  265  PHE LEU PRO ALA SER THR PHE KCX ILE PRO ASN SER LEU          
   7 A  265  ILE ALA LEU ASP LEU GLY VAL VAL LYS ASP GLU HIS GLN          
   8 A  265  VAL PHE LYS TRP ASP GLY GLN THR ARG ASP ILE ALA THR          
   9 A  265  TRP ASN ARG ASP HIS ASN LEU ILE THR ALA MET LYS TYR          
  10 A  265  SER VAL VAL PRO VAL TYR GLN GLU PHE ALA ARG GLN ILE          
  11 A  265  GLY GLU ALA ARG MET SER LYS MET LEU HIS ALA PHE ASP          
  12 A  265  TYR GLY ASN GLU ASP ILE SER GLY ASN VAL ASP SER PHE          
  13 A  265  TRP LEU ASP GLY GLY ILE ARG ILE SER ALA THR GLU GLN          
  14 A  265  ILE SER PHE LEU ARG LYS LEU TYR HIS ASN LYS LEU HIS          
  15 A  265  VAL SER GLU ARG SER GLN ARG ILE VAL LYS GLN ALA MET          
  16 A  265  LEU THR GLU ALA ASN GLY ASP TYR ILE ILE ARG ALA LYS          
  17 A  265  THR GLY TYR SER THR ARG ILE GLU PRO LYS ILE GLY TRP          
  18 A  265  TRP VAL GLY TRP VAL GLU LEU ASP ASP ASN VAL TRP PHE          
  19 A  265  PHE ALA MET ASN MET ASP MET PRO THR SER ASP GLY LEU          
  20 A  265  GLY LEU ARG GLN ALA ILE THR LYS GLU VAL LEU LYS GLN          
  21 A  265  GLU LYS ILE ILE PRO                                          
   1 B  265  MET ARG VAL LEU ALA LEU SER ALA VAL PHE LEU VAL ALA          
   2 B  265  SER ILE ILE GLY MET PRO ALA VAL ALA LYS GLU TRP GLN          
   3 B  265  GLU ASN LYS SER TRP ASN ALA HIS PHE THR GLU HIS LYS          
   4 B  265  SER GLN GLY VAL VAL VAL LEU TRP ASN GLU ASN LYS GLN          
   5 B  265  GLN GLY PHE THR ASN ASN LEU LYS ARG ALA ASN GLN ALA          
   6 B  265  PHE LEU PRO ALA SER THR PHE KCX ILE PRO ASN SER LEU          
   7 B  265  ILE ALA LEU ASP LEU GLY VAL VAL LYS ASP GLU HIS GLN          
   8 B  265  VAL PHE LYS TRP ASP GLY GLN THR ARG ASP ILE ALA THR          
   9 B  265  TRP ASN ARG ASP HIS ASN LEU ILE THR ALA MET LYS TYR          
  10 B  265  SER VAL VAL PRO VAL TYR GLN GLU PHE ALA ARG GLN ILE          
  11 B  265  GLY GLU ALA ARG MET SER LYS MET LEU HIS ALA PHE ASP          
  12 B  265  TYR GLY ASN GLU ASP ILE SER GLY ASN VAL ASP SER PHE          
  13 B  265  TRP LEU ASP GLY GLY ILE ARG ILE SER ALA THR GLU GLN          
  14 B  265  ILE SER PHE LEU ARG LYS LEU TYR HIS ASN LYS LEU HIS          
  15 B  265  VAL SER GLU ARG SER GLN ARG ILE VAL LYS GLN ALA MET          
  16 B  265  LEU THR GLU ALA ASN GLY ASP TYR ILE ILE ARG ALA LYS          
  17 B  265  THR GLY TYR SER THR ARG ILE GLU PRO LYS ILE GLY TRP          
  18 B  265  TRP VAL GLY TRP VAL GLU LEU ASP ASP ASN VAL TRP PHE          
  19 B  265  PHE ALA MET ASN MET ASP MET PRO THR SER ASP GLY LEU          
  20 B  265  GLY LEU ARG GLN ALA ILE THR LYS GLU VAL LEU LYS GLN          
  21 B  265  GLU LYS ILE ILE PRO                                          
   1 C  265  MET ARG VAL LEU ALA LEU SER ALA VAL PHE LEU VAL ALA          
   2 C  265  SER ILE ILE GLY MET PRO ALA VAL ALA LYS GLU TRP GLN          
   3 C  265  GLU ASN LYS SER TRP ASN ALA HIS PHE THR GLU HIS LYS          
   4 C  265  SER GLN GLY VAL VAL VAL LEU TRP ASN GLU ASN LYS GLN          
   5 C  265  GLN GLY PHE THR ASN ASN LEU LYS ARG ALA ASN GLN ALA          
   6 C  265  PHE LEU PRO ALA SER THR PHE KCX ILE PRO ASN SER LEU          
   7 C  265  ILE ALA LEU ASP LEU GLY VAL VAL LYS ASP GLU HIS GLN          
   8 C  265  VAL PHE LYS TRP ASP GLY GLN THR ARG ASP ILE ALA THR          
   9 C  265  TRP ASN ARG ASP HIS ASN LEU ILE THR ALA MET LYS TYR          
  10 C  265  SER VAL VAL PRO VAL TYR GLN GLU PHE ALA ARG GLN ILE          
  11 C  265  GLY GLU ALA ARG MET SER LYS MET LEU HIS ALA PHE ASP          
  12 C  265  TYR GLY ASN GLU ASP ILE SER GLY ASN VAL ASP SER PHE          
  13 C  265  TRP LEU ASP GLY GLY ILE ARG ILE SER ALA THR GLU GLN          
  14 C  265  ILE SER PHE LEU ARG LYS LEU TYR HIS ASN LYS LEU HIS          
  15 C  265  VAL SER GLU ARG SER GLN ARG ILE VAL LYS GLN ALA MET          
  16 C  265  LEU THR GLU ALA ASN GLY ASP TYR ILE ILE ARG ALA LYS          
  17 C  265  THR GLY TYR SER THR ARG ILE GLU PRO LYS ILE GLY TRP          
  18 C  265  TRP VAL GLY TRP VAL GLU LEU ASP ASP ASN VAL TRP PHE          
  19 C  265  PHE ALA MET ASN MET ASP MET PRO THR SER ASP GLY LEU          
  20 C  265  GLY LEU ARG GLN ALA ILE THR LYS GLU VAL LEU LYS GLN          
  21 C  265  GLU LYS ILE ILE PRO                                          
   1 D  265  MET ARG VAL LEU ALA LEU SER ALA VAL PHE LEU VAL ALA          
   2 D  265  SER ILE ILE GLY MET PRO ALA VAL ALA LYS GLU TRP GLN          
   3 D  265  GLU ASN LYS SER TRP ASN ALA HIS PHE THR GLU HIS LYS          
   4 D  265  SER GLN GLY VAL VAL VAL LEU TRP ASN GLU ASN LYS GLN          
   5 D  265  GLN GLY PHE THR ASN ASN LEU LYS ARG ALA ASN GLN ALA          
   6 D  265  PHE LEU PRO ALA SER THR PHE KCX ILE PRO ASN SER LEU          
   7 D  265  ILE ALA LEU ASP LEU GLY VAL VAL LYS ASP GLU HIS GLN          
   8 D  265  VAL PHE LYS TRP ASP GLY GLN THR ARG ASP ILE ALA THR          
   9 D  265  TRP ASN ARG ASP HIS ASN LEU ILE THR ALA MET LYS TYR          
  10 D  265  SER VAL VAL PRO VAL TYR GLN GLU PHE ALA ARG GLN ILE          
  11 D  265  GLY GLU ALA ARG MET SER LYS MET LEU HIS ALA PHE ASP          
  12 D  265  TYR GLY ASN GLU ASP ILE SER GLY ASN VAL ASP SER PHE          
  13 D  265  TRP LEU ASP GLY GLY ILE ARG ILE SER ALA THR GLU GLN          
  14 D  265  ILE SER PHE LEU ARG LYS LEU TYR HIS ASN LYS LEU HIS          
  15 D  265  VAL SER GLU ARG SER GLN ARG ILE VAL LYS GLN ALA MET          
  16 D  265  LEU THR GLU ALA ASN GLY ASP TYR ILE ILE ARG ALA LYS          
  17 D  265  THR GLY TYR SER THR ARG ILE GLU PRO LYS ILE GLY TRP          
  18 D  265  TRP VAL GLY TRP VAL GLU LEU ASP ASP ASN VAL TRP PHE          
  19 D  265  PHE ALA MET ASN MET ASP MET PRO THR SER ASP GLY LEU          
  20 D  265  GLY LEU ARG GLN ALA ILE THR LYS GLU VAL LEU LYS GLN          
  21 D  265  GLU LYS ILE ILE PRO                                          

>  <MODRES>
 7DML KCX A   73  LYS  MODIFIED RESIDUE                                   
 7DML KCX B   73  LYS  MODIFIED RESIDUE                                   
 7DML KCX C   73  LYS  MODIFIED RESIDUE                                   
 7DML KCX D   73  LYS  MODIFIED RESIDUE                                   

>  <HET>
 KCX  A  73      12                                                       
 KCX  B  73      12                                                       
 KCX  C  73      12                                                       
 KCX  D  73      12                                                       
 H9O  A 301      15                                                       
 H9O  B 301      15                                                       
 H9O  C 301      15                                                       
 H9O  D 301      15                                                       

>  <HETNAM>
     KCX LYSINE NZ-CARBOXYLIC ACID                                        
     H9O 2-[(3R)-1-OXIDANYL-3H-2,1-BENZOXABOROL-3-YL]PROP-2-              
   2 H9O  ENOIC ACID                                                      

>  <FORMUL>
   1  KCX    4(C7 H14 N2 O4)                                              
   5  H9O    4(C10 H9 B O4)                                               
   9  HOH   *980(H2 O)                                                    

>  <HELIX>
   1 AA1 TRP A   31  HIS A   38  1                                   8    
   2 AA2 ASN A   58  ASN A   63  1                                   6    
   3 AA3 PRO A   68  THR A   71  5                                   4    
   4 AA4 PHE A   72  LEU A   83  1                                  12    
   5 AA5 ILE A  102  ASN A  106  5                                   5    
   6 AA6 ASN A  110  TYR A  117  1                                   8    
   7 AA7 VAL A  119  GLY A  131  1                                  13    
   8 AA8 GLY A  131  PHE A  142  1                                  12    
   9 AA9 SER A  155  GLY A  160  1                                   6    
  10 AB1 ALA A  166  HIS A  178  1                                  13    
  11 AB2 SER A  184  MET A  195  1                                  12    
  12 AB3 THR A  243  LEU A  247  5                                   5    
  13 AB4 GLY A  248  GLU A  261  1                                  14    
  14 AB5 TRP B   31  GLU B   37  1                                   7    
  15 AB6 ASN B   58  ASN B   63  1                                   6    
  16 AB7 PRO B   68  THR B   71  5                                   4    
  17 AB8 PHE B   72  LEU B   83  1                                  12    
  18 AB9 ILE B  102  ASN B  106  5                                   5    
  19 AC1 ASN B  110  TYR B  117  1                                   8    
  20 AC2 VAL B  119  GLY B  131  1                                  13    
  21 AC3 GLY B  131  PHE B  142  1                                  12    
  22 AC4 SER B  155  GLY B  160  1                                   6    
  23 AC5 ALA B  166  HIS B  178  1                                  13    
  24 AC6 SER B  184  MET B  195  1                                  12    
  25 AC7 THR B  243  LEU B  247  5                                   5    
  26 AC8 GLY B  248  GLU B  261  1                                  14    
  27 AC9 TRP C   31  HIS C   38  1                                   8    
  28 AD1 ASN C   58  ASN C   63  1                                   6    
  29 AD2 PRO C   68  THR C   71  5                                   4    
  30 AD3 PHE C   72  LEU C   83  1                                  12    
  31 AD4 ILE C  102  ASN C  106  5                                   5    
  32 AD5 ASN C  110  TYR C  117  1                                   8    
  33 AD6 VAL C  119  GLY C  131  1                                  13    
  34 AD7 GLY C  131  ASP C  143  1                                  13    
  35 AD8 SER C  155  GLY C  160  1                                   6    
  36 AD9 ALA C  166  HIS C  178  1                                  13    
  37 AE1 SER C  184  MET C  195  1                                  12    
  38 AE2 THR C  243  LEU C  247  5                                   5    
  39 AE3 GLY C  248  GLU C  261  1                                  14    
  40 AE4 TRP D   31  HIS D   38  1                                   8    
  41 AE5 ASN D   58  ASN D   63  1                                   6    
  42 AE6 PRO D   68  THR D   71  5                                   4    
  43 AE7 PHE D   72  LEU D   83  1                                  12    
  44 AE8 ILE D  102  ASN D  106  5                                   5    
  45 AE9 ASN D  110  TYR D  117  1                                   8    
  46 AF1 VAL D  119  GLY D  131  1                                  13    
  47 AF2 GLY D  131  PHE D  142  1                                  12    
  48 AF3 SER D  155  GLY D  160  1                                   6    
  49 AF4 ALA D  166  HIS D  178  1                                  13    
  50 AF5 SER D  184  MET D  195  1                                  12    
  51 AF6 THR D  243  LEU D  247  5                                   5    
  52 AF7 GLY D  248  GLU D  261  1                                  14    

>  <SHEET>
   1 AA1 7 GLN A  26  GLU A  27  0                                        
   2 AA1 7 GLN A  53  THR A  56  1  O  THR A  56   N  GLN A  26           
   3 AA1 7 GLY A  42  ASN A  48 -1  N  LEU A  46   O  PHE A  55           
   4 AA1 7 VAL A 232  ASP A 240 -1  O  ASN A 238   N  VAL A  43           
   5 AA1 7 ILE A 219  GLU A 227 -1  N  GLY A 224   O  PHE A 235           
   6 AA1 7 ILE A 204  SER A 212 -1  N  ILE A 204   O  GLU A 227           
   7 AA1 7 LEU A 196  ALA A 199 -1  N  GLU A 198   O  ILE A 205           
   1 AA2 2 ALA A  65  PHE A  66  0                                        
   2 AA2 2 ILE A 164  SER A 165 -1  O  ILE A 164   N  PHE A  66           
   1 AA3 7 GLN B  26  GLU B  27  0                                        
   2 AA3 7 GLN B  53  THR B  56  1  O  GLY B  54   N  GLN B  26           
   3 AA3 7 GLY B  42  ASN B  48 -1  N  LEU B  46   O  PHE B  55           
   4 AA3 7 VAL B 232  ASP B 240 -1  O  ASN B 238   N  VAL B  43           
   5 AA3 7 ILE B 219  GLU B 227 -1  N  GLY B 224   O  PHE B 235           
   6 AA3 7 ILE B 204  SER B 212 -1  N  ILE B 204   O  GLU B 227           
   7 AA3 7 LEU B 196  ALA B 199 -1  N  GLU B 198   O  ILE B 205           
   1 AA4 2 ALA B  65  PHE B  66  0                                        
   2 AA4 2 ILE B 164  SER B 165 -1  O  ILE B 164   N  PHE B  66           
   1 AA5 7 GLN C  26  GLU C  27  0                                        
   2 AA5 7 GLN C  53  THR C  56  1  O  THR C  56   N  GLN C  26           
   3 AA5 7 GLY C  42  ASN C  48 -1  N  LEU C  46   O  PHE C  55           
   4 AA5 7 VAL C 232  ASP C 240 -1  O  ASN C 238   N  VAL C  43           
   5 AA5 7 ILE C 219  GLU C 227 -1  N  VAL C 226   O  TRP C 233           
   6 AA5 7 ILE C 204  SER C 212 -1  N  ILE C 204   O  GLU C 227           
   7 AA5 7 LEU C 196  ALA C 199 -1  N  GLU C 198   O  ILE C 205           
   1 AA6 2 ALA C  65  PHE C  66  0                                        
   2 AA6 2 ILE C 164  SER C 165 -1  O  ILE C 164   N  PHE C  66           
   1 AA7 7 GLN D  26  GLU D  27  0                                        
   2 AA7 7 GLN D  53  THR D  56  1  O  GLY D  54   N  GLN D  26           
   3 AA7 7 GLY D  42  ASN D  48 -1  N  LEU D  46   O  PHE D  55           
   4 AA7 7 VAL D 232  ASP D 240 -1  O  ASN D 238   N  VAL D  43           
   5 AA7 7 ILE D 219  GLU D 227 -1  N  GLY D 224   O  PHE D 235           
   6 AA7 7 ILE D 204  SER D 212 -1  N  SER D 212   O  ILE D 219           
   7 AA7 7 LEU D 196  ALA D 199 -1  N  GLU D 198   O  ILE D 205           
   1 AA8 2 ALA D  65  PHE D  66  0                                        
   2 AA8 2 ILE D 164  SER D 165 -1  O  ILE D 164   N  PHE D  66           

>  <LINK>
       C   PHE A  72                 N   KCX A  73     1555   1555  1.34  
       C   KCX A  73                 N   ILE A  74     1555   1555  1.35  
       C   PHE B  72                 N   KCX B  73     1555   1555  1.34  
       C   KCX B  73                 N   ILE B  74     1555   1555  1.35  
       C   PHE C  72                 N   KCX C  73     1555   1555  1.34  
       C   KCX C  73                 N   ILE C  74     1555   1555  1.35  
       C   PHE D  72                 N   KCX D  73     1555   1555  1.34  
       C   KCX D  73                 N   ILE D  74     1555   1555  1.35  

>  <CISPEP>
   1 GLU A  216    PRO A  217          0        -4.83                     
   2 GLU B  216    PRO B  217          0        -9.92                     
   3 GLU C  216    PRO C  217          0        -4.56                     
   4 GLU D  216    PRO D  217          0        -1.85                     

>  <ORIGX1>
      1.000000  0.000000  0.000000        0.00000                         

>  <ORIGX2>
      0.000000  1.000000  0.000000        0.00000                         

>  <ORIGX3>
      0.000000  0.000000  1.000000        0.00000                         

>  <SCALE1>
      0.017107  0.000000  0.005494        0.00000                         

>  <SCALE2>
      0.000000  0.009446  0.000000        0.00000                         

>  <SCALE3>
      0.000000  0.000000  0.011160        0.00000                         

>  <MASTER>
      426    0    8   52   36    0    0    6 8936    4  116   84          

$$$$
