start_structures/Ligand_Substrate/Ligand_Complex_Stripped/HD5_6Q35.pdb
 OpenBabel08222315203D

 34 36  0  0  1  0  0  0  0  0999 V2000
    5.9780   -6.7230  -20.7570 N   0  0  0  0  0  0  0  0  0  0  0  0
    6.5620   -7.8900  -20.0960 C   0  0  2  0  0  0  0  0  0  0  0  0
    6.9250   -7.6190  -18.6270 C   0  0  0  0  0  0  0  0  0  0  0  0
    7.2990   -8.5860  -17.9300 O   0  0  0  0  0  0  0  0  0  0  0  0
    7.8100   -8.3910  -20.8160 C   0  0  0  0  0  0  0  0  0  0  0  0
    7.4550   -9.0500  -22.0390 O   0  0  0  0  0  0  0  0  0  0  0  0
    9.7190  -10.4980  -29.9730 C   0  0  0  0  0  0  0  0  0  0  0  0
    6.2300  -10.4370  -30.5900 C   0  0  0  0  0  0  0  0  0  0  0  0
    7.3360  -10.2870  -29.2190 C   0  0  0  0  0  0  0  0  0  0  0  0
    8.2370  -10.1280  -29.1190 C   0  0  0  0  0  0  0  0  0  0  0  0
    6.3750   -9.9740  -28.2720 C   0  0  0  0  0  0  0  0  0  0  0  0
    8.8310   -9.8000  -27.9110 C   0  0  0  0  0  0  0  0  0  0  0  0
    6.8120   -9.5560  -27.0310 C   0  0  0  0  0  0  0  0  0  0  0  0
    8.0050   -9.3960  -26.8810 C   0  0  0  0  0  0  0  0  0  0  0  0
    8.6810  -10.1490  -28.9110 C   0  0  0  0  0  0  0  0  0  0  0  0
    6.8580  -10.0680  -29.2500 C   0  0  0  0  0  0  0  0  0  0  0  0
    9.1030   -9.7360  -27.6620 C   0  0  0  0  0  0  0  0  0  0  0  0
    6.0460   -9.6550  -28.2120 C   0  0  0  0  0  0  0  0  0  0  0  0
    8.1550   -9.4290  -26.6720 C   0  0  0  0  0  0  0  0  0  0  0  0
    6.6170   -9.2980  -26.9800 C   0  0  0  0  0  0  0  0  0  0  0  0
    8.4090   -8.9760  -25.2870 C   0  0  0  0  0  0  0  0  0  0  0  0
    5.9190   -8.8340  -25.7610 C   0  0  0  0  0  0  0  0  0  0  0  0
    7.1570   -8.7660  -24.6390 C   0  0  0  0  0  0  0  0  0  0  0  0
    6.8870   -8.6000  -24.7420 C   0  0  0  0  0  0  0  0  0  0  0  0
    6.7470   -8.2020  -23.2320 B   0  0  0  0  0  0  0  0  0  0  0  0
    6.7890   -8.2030  -23.2250 B   0  0  0  0  0  0  0  0  0  0  0  0
    7.2020   -6.9250  -23.0940 O   0  0  0  0  0  0  0  0  0  0  0  0
    5.4460   -8.2090  -23.0110 O   0  0  0  0  0  0  0  0  0  0  0  0
    5.3980   -8.2370  -23.0490 O   0  0  0  0  0  0  0  0  0  0  0  0
    7.2590   -7.0290  -23.0300 O   0  0  0  0  0  0  0  0  0  0  0  0
    5.8990   -9.1630  -25.6890 S   0  0  0  0  0  0  0  0  0  0  0  0
    8.4320   -8.8970  -25.3460 S   0  0  0  0  0  0  0  0  0  0  0  0
   10.9130   -9.7540  -29.6260 N   0  0  0  0  0  0  0  0  0  0  0  0
    4.8040  -10.8160  -30.5650 N   0  0  0  0  0  0  0  0  0  0  0  0
  1  2  1  0  0  0  0
  2  5  1  6  0  0  0
  2  3  1  0  0  0  0
  3  4  2  0  0  0  0
  6 25  1  0  0  0  0
  6 26  1  0  0  0  0
  7 15  1  0  0  0  0
  7 33  1  0  0  0  0
  8 16  1  0  0  0  0
  8 34  1  0  0  0  0
  9 11  2  0  0  0  0
  9 15  1  0  0  0  0
 10 12  2  0  0  0  0
 10 16  1  0  0  0  0
 11 13  1  0  0  0  0
 12 14  1  0  0  0  0
 13 19  2  0  0  0  0
 13 31  1  0  0  0  0
 14 20  2  0  0  0  0
 14 32  1  0  0  0  0
 15 17  2  0  0  0  0
 16 18  2  0  0  0  0
 17 19  1  0  0  0  0
 18 20  1  0  0  0  0
 19 21  1  0  0  0  0
 20 22  1  0  0  0  0
 21 23  2  0  0  0  0
 22 24  2  0  0  0  0
 23 25  1  0  0  0  0
 23 31  1  0  0  0  0
 24 26  1  0  0  0  0
 24 32  1  0  0  0  0
 25 27  1  0  0  0  0
 25 29  1  0  0  0  0
 26 28  1  0  0  0  0
 26 30  1  0  0  0  0
M  END
>  <HEADER>
    HYDROLASE                               03-DEC-18   6Q35              

>  <TITLE>
    CRYSTAL STRUCTURE OF GES-5 BETA-LACTAMASE IN COMPLEX WITH BORONIC     
   2 INHIBITOR CPD 3                                                      

>  <COMPND>
    MOL_ID: 1;                                                            
   2 MOLECULE: BETA-LACTAMASE;                                            
   3 CHAIN: A, B;                                                         
   4 EC: 3.5.2.6;                                                         
   5 ENGINEERED: YES;                                                     
   6 OTHER_DETAILS: UNOBSERVED RESIDUES                                   

>  <SOURCE>
    MOL_ID: 1;                                                            
   2 ORGANISM_SCIENTIFIC: KLEBSIELLA PNEUMONIAE;                          
   3 ORGANISM_TAXID: 573;                                                 
   4 GENE: BLAGES-5, PGES-GZ_027;                                         
   5 EXPRESSION_SYSTEM: ESCHERICHIA COLI;                                 
   6 EXPRESSION_SYSTEM_TAXID: 562                                         

>  <KEYWDS>
    BETA-LACTAMASE; BACTERIAL RESISTANCE; ACYCLIC BORONIC INHIBITORS,     
   2 HYDROLASE                                                            

>  <EXPDTA>
    X-RAY DIFFRACTION                                                     

>  <AUTHOR>
    L.MASO,A.QUOTADAMO,P.BELLIO,M.MONTANARI,A.VENTURELLI,G.CELENZA,       
   2 M.P.COSTI,D.TONDI,L.CENDRON                                          

>  <REVDAT>
   2   01-MAY-19 6Q35    1       JRNL                                     
   1   24-APR-19 6Q35    0                                                

>  <JRNL>
      AUTH   L.CENDRON,A.QUOTADAMO,L.MASO,P.BELLIO,M.MONTANARI,G.CELENZA, 
      AUTH 2 A.VENTURELLI,M.P.COSTI,D.TONDI                               
      TITL   X-RAY CRYSTALLOGRAPHY DECIPHERS THE ACTIVITY OF              
      TITL 2 BROAD-SPECTRUM BORONIC ACID BETA-LACTAMASE INHIBITORS.       
      REF    ACS MED.CHEM.LETT.            V.  10   650 2019              
      REFN                   ISSN 1948-5875                               
      PMID   30996812                                                     
      DOI    10.1021/ACSMEDCHEMLETT.8B00607                               

>  <REMARK>
   2                                                                      
   2 RESOLUTION.    1.40 ANGSTROMS.                                       
   3                                                                      
   3 REFINEMENT.                                                          
   3   PROGRAM     : REFMAC 5.8.0238                                      
   3   AUTHORS     : MURSHUDOV,SKUBAK,LEBEDEV,PANNU,STEINER,              
   3               : NICHOLLS,WINN,LONG,VAGIN                             
   3                                                                      
   3    REFINEMENT TARGET : MAXIMUM LIKELIHOOD                            
   3                                                                      
   3  DATA USED IN REFINEMENT.                                            
   3   RESOLUTION RANGE HIGH (ANGSTROMS) : 1.40                           
   3   RESOLUTION RANGE LOW  (ANGSTROMS) : 58.82                          
   3   DATA CUTOFF            (SIGMA(F)) : NULL                           
   3   COMPLETENESS FOR RANGE        (%) : 100.0                          
   3   NUMBER OF REFLECTIONS             : 99250                          
   3                                                                      
   3  FIT TO DATA USED IN REFINEMENT.                                     
   3   CROSS-VALIDATION METHOD          : THROUGHOUT                      
   3   FREE R VALUE TEST SET SELECTION  : RANDOM                          
   3   R VALUE     (WORKING + TEST SET) : 0.167                           
   3   R VALUE            (WORKING SET) : 0.165                           
   3   FREE R VALUE                     : 0.209                           
   3   FREE R VALUE TEST SET SIZE   (%) : 4.800                           
   3   FREE R VALUE TEST SET COUNT      : 5051                            
   3                                                                      
   3  FIT IN THE HIGHEST RESOLUTION BIN.                                  
   3   TOTAL NUMBER OF BINS USED           : 20                           
   3   BIN RESOLUTION RANGE HIGH       (A) : 1.40                         
   3   BIN RESOLUTION RANGE LOW        (A) : 1.44                         
   3   REFLECTION IN BIN     (WORKING SET) : 7258                         
   3   BIN COMPLETENESS (WORKING+TEST) (%) : 99.92                        
   3   BIN R VALUE           (WORKING SET) : 0.2610                       
   3   BIN FREE R VALUE SET COUNT          : 367                          
   3   BIN FREE R VALUE                    : 0.2950                       
   3                                                                      
   3  NUMBER OF NON-HYDROGEN ATOMS USED IN REFINEMENT.                    
   3   PROTEIN ATOMS            : 4080                                    
   3   NUCLEIC ACID ATOMS       : 0                                       
   3   HETEROGEN ATOMS          : 100                                     
   3   SOLVENT ATOMS            : 281                                     
   3                                                                      
   3  B VALUES.                                                           
   3   FROM WILSON PLOT           (A**2) : 16.12                          
   3   MEAN B VALUE      (OVERALL, A**2) : 20.52                          
   3   OVERALL ANISOTROPIC B VALUE.                                       
   3    B11 (A**2) : -0.12000                                             
   3    B22 (A**2) : 0.19000                                              
   3    B33 (A**2) : -0.06000                                             
   3    B12 (A**2) : 0.00000                                              
   3    B13 (A**2) : 0.00000                                              
   3    B23 (A**2) : 0.00000                                              
   3                                                                      
   3  ESTIMATED OVERALL COORDINATE ERROR.                                 
   3   ESU BASED ON R VALUE                            (A): 0.067         
   3   ESU BASED ON FREE R VALUE                       (A): 0.064         
   3   ESU BASED ON MAXIMUM LIKELIHOOD                 (A): 0.045         
   3   ESU FOR B VALUES BASED ON MAXIMUM LIKELIHOOD (A**2): 2.635         
   3                                                                      
   3 CORRELATION COEFFICIENTS.                                            
   3   CORRELATION COEFFICIENT FO-FC      : 0.967                         
   3   CORRELATION COEFFICIENT FO-FC FREE : 0.951                         
   3                                                                      
   3  RMS DEVIATIONS FROM IDEAL VALUES        COUNT    RMS    WEIGHT      
   3   BOND LENGTHS REFINED ATOMS        (A):  4419 ; 0.016 ; 0.012       
   3   BOND LENGTHS OTHERS               (A):  NULL ;  NULL ;  NULL       
   3   BOND ANGLES REFINED ATOMS   (DEGREES):  5989 ; 2.126 ; 1.668       
   3   BOND ANGLES OTHERS          (DEGREES):  NULL ;  NULL ;  NULL       
   3   TORSION ANGLES, PERIOD 1    (DEGREES):   581 ; 6.106 ; 5.000       
   3   TORSION ANGLES, PERIOD 2    (DEGREES):   227 ;33.411 ;21.101       
   3   TORSION ANGLES, PERIOD 3    (DEGREES):   758 ;13.491 ;15.000       
   3   TORSION ANGLES, PERIOD 4    (DEGREES):    40 ;19.004 ;15.000       
   3   CHIRAL-CENTER RESTRAINTS       (A**3):   591 ; 0.136 ; 0.200       
   3   GENERAL PLANES REFINED ATOMS      (A):  3344 ; 0.014 ; 0.020       
   3   GENERAL PLANES OTHERS             (A):  NULL ;  NULL ;  NULL       
   3   NON-BONDED CONTACTS REFINED ATOMS (A):  NULL ;  NULL ;  NULL       
   3   NON-BONDED CONTACTS OTHERS        (A):  NULL ;  NULL ;  NULL       
   3   NON-BONDED TORSION REFINED ATOMS  (A):  NULL ;  NULL ;  NULL       
   3   NON-BONDED TORSION OTHERS         (A):  NULL ;  NULL ;  NULL       
   3   H-BOND (X...Y) REFINED ATOMS      (A):  NULL ;  NULL ;  NULL       
   3   H-BOND (X...Y) OTHERS             (A):  NULL ;  NULL ;  NULL       
   3   POTENTIAL METAL-ION REFINED ATOMS (A):  NULL ;  NULL ;  NULL       
   3   POTENTIAL METAL-ION OTHERS        (A):  NULL ;  NULL ;  NULL       
   3   SYMMETRY VDW REFINED ATOMS        (A):  NULL ;  NULL ;  NULL       
   3   SYMMETRY VDW OTHERS               (A):  NULL ;  NULL ;  NULL       
   3   SYMMETRY H-BOND REFINED ATOMS     (A):  NULL ;  NULL ;  NULL       
   3   SYMMETRY H-BOND OTHERS            (A):  NULL ;  NULL ;  NULL       
   3   SYMMETRY METAL-ION REFINED ATOMS  (A):  NULL ;  NULL ;  NULL       
   3   SYMMETRY METAL-ION OTHERS         (A):  NULL ;  NULL ;  NULL       
   3                                                                      
   3  ISOTROPIC THERMAL FACTOR RESTRAINTS.     COUNT   RMS    WEIGHT      
   3   MAIN-CHAIN BOND REFINED ATOMS  (A**2):  2198 ; 2.461 ; 1.731       
   3   MAIN-CHAIN BOND OTHER ATOMS    (A**2):  NULL ;  NULL ;  NULL       
   3   MAIN-CHAIN ANGLE REFINED ATOMS (A**2):  2761 ; 2.810 ; 2.600       
   3   MAIN-CHAIN ANGLE OTHER ATOMS   (A**2):  NULL ;  NULL ;  NULL       
   3   SIDE-CHAIN BOND REFINED ATOMS  (A**2):  2221 ; 4.230 ; 2.116       
   3   SIDE-CHAIN BOND OTHER ATOMS    (A**2):  NULL ;  NULL ;  NULL       
   3   SIDE-CHAIN ANGLE REFINED ATOMS (A**2):  NULL ;  NULL ;  NULL       
   3   SIDE-CHAIN ANGLE OTHER ATOMS   (A**2):  NULL ;  NULL ;  NULL       
   3   LONG RANGE B REFINED ATOMS     (A**2):  7216 ; 3.995 ;25.574       
   3   LONG RANGE B OTHER ATOMS       (A**2):  NULL ;  NULL ;  NULL       
   3                                                                      
   3 ANISOTROPIC THERMAL FACTOR RESTRAINTS.    COUNT   RMS   WEIGHT       
   3   RIGID-BOND RESTRAINTS          (A**2):  4419 ; 5.527 ; 3.000       
   3   SPHERICITY; FREE ATOMS         (A**2):  NULL ;  NULL ;  NULL       
   3   SPHERICITY; BONDED ATOMS       (A**2):  NULL ;  NULL ;  NULL       
   3                                                                      
   3  NCS RESTRAINTS STATISTICS                                           
   3   NUMBER OF DIFFERENT NCS GROUPS : NULL                              
   3                                                                      
   3  TLS DETAILS                                                         
   3   NUMBER OF TLS GROUPS  : NULL                                       
   3                                                                      
   3  BULK SOLVENT MODELLING.                                             
   3   METHOD USED : MASK                                                 
   3   PARAMETERS FOR MASK CALCULATION                                    
   3   VDW PROBE RADIUS   : 1.20                                          
   3   ION PROBE RADIUS   : 0.80                                          
   3   SHRINKAGE RADIUS   : 0.80                                          
   3                                                                      
   3  OTHER REFINEMENT REMARKS: NULL                                      
   4                                                                      
   4 6Q35 COMPLIES WITH FORMAT V. 3.30, 13-JUL-11                         
 100                                                                      
 100 THIS ENTRY HAS BEEN PROCESSED BY PDBE ON 03-DEC-18.                  
 100 THE DEPOSITION ID IS D_1200013216.                                   
 200                                                                      
 200 EXPERIMENTAL DETAILS                                                 
 200  EXPERIMENT TYPE                : X-RAY DIFFRACTION                  
 200  DATE OF DATA COLLECTION        : 22-JUL-18                          
 200  TEMPERATURE           (KELVIN) : 100                                
 200  PH                             : 8.5                                
 200  NUMBER OF CRYSTALS USED        : 1                                  
 200                                                                      
 200  SYNCHROTRON              (Y/N) : Y                                  
 200  RADIATION SOURCE               : ESRF                               
 200  BEAMLINE                       : ID23-1                             
 200  X-RAY GENERATOR MODEL          : NULL                               
 200  MONOCHROMATIC OR LAUE    (M/L) : M                                  
 200  WAVELENGTH OR RANGE        (A) : 1.00                               
 200  MONOCHROMATOR                  : NULL                               
 200  OPTICS                         : NULL                               
 200                                                                      
 200  DETECTOR TYPE                  : PIXEL                              
 200  DETECTOR MANUFACTURER          : DECTRIS PILATUS3 6M                
 200  INTENSITY-INTEGRATION SOFTWARE : XIA2                               
 200  DATA SCALING SOFTWARE          : AIMLESS                            
 200                                                                      
 200  NUMBER OF UNIQUE REFLECTIONS   : 104301                             
 200  RESOLUTION RANGE HIGH      (A) : 1.400                              
 200  RESOLUTION RANGE LOW       (A) : 58.820                             
 200  REJECTION CRITERIA  (SIGMA(I)) : NULL                               
 200                                                                      
 200 OVERALL.                                                             
 200  COMPLETENESS FOR RANGE     (%) : 100.0                              
 200  DATA REDUNDANCY                : 1.900                              
 200  R MERGE                    (I) : 0.02800                            
 200  R SYM                      (I) : NULL                               
 200  <I/SIGMA(I)> FOR THE DATA SET  : 11.4200                            
 200                                                                      
 200 IN THE HIGHEST RESOLUTION SHELL.                                     
 200  HIGHEST RESOLUTION SHELL, RANGE HIGH (A) : 1.40                     
 200  HIGHEST RESOLUTION SHELL, RANGE LOW  (A) : 1.45                     
 200  COMPLETENESS FOR SHELL     (%) : 100.0                              
 200  DATA REDUNDANCY IN SHELL       : 1.90                               
 200  R MERGE FOR SHELL          (I) : 0.33000                            
 200  R SYM FOR SHELL            (I) : NULL                               
 200  <I/SIGMA(I)> FOR SHELL         : 1.880                              
 200                                                                      
 200 DIFFRACTION PROTOCOL: SINGLE WAVELENGTH                              
 200 METHOD USED TO DETERMINE THE STRUCTURE: MOLECULAR REPLACEMENT        
 200 SOFTWARE USED: PHASER                                                
 200 STARTING MODEL: 4GNU                                                 
 200                                                                      
 200 REMARK: NULL                                                         
 280                                                                      
 280 CRYSTAL                                                              
 280 SOLVENT CONTENT, VS   (%): 45.10                                     
 280 MATTHEWS COEFFICIENT, VM (ANGSTROMS**3/DA): 2.24                     
 280                                                                      
 280 CRYSTALLIZATION CONDITIONS: 0.2 M NABR; 0.1 M BIS TRIS PROPANE PH    
 280  8.5; 20% W/V PEG 3350, VAPOR DIFFUSION, SITTING DROP,               
 280  TEMPERATURE 293K                                                    
 290                                                                      
 290 CRYSTALLOGRAPHIC SYMMETRY                                            
 290 SYMMETRY OPERATORS FOR SPACE GROUP: P 21 21 21                       
 290                                                                      
 290      SYMOP   SYMMETRY                                                
 290     NNNMMM   OPERATOR                                                
 290       1555   X,Y,Z                                                   
 290       2555   -X+1/2,-Y,Z+1/2                                         
 290       3555   -X,Y+1/2,-Z+1/2                                         
 290       4555   X+1/2,-Y+1/2,-Z                                         
 290                                                                      
 290     WHERE NNN -> OPERATOR NUMBER                                     
 290           MMM -> TRANSLATION VECTOR                                  
 290                                                                      
 290 CRYSTALLOGRAPHIC SYMMETRY TRANSFORMATIONS                            
 290 THE FOLLOWING TRANSFORMATIONS OPERATE ON THE ATOM/HETATM             
 290 RECORDS IN THIS ENTRY TO PRODUCE CRYSTALLOGRAPHICALLY                
 290 RELATED MOLECULES.                                                   
 290   SMTRY1   1  1.000000  0.000000  0.000000        0.00000            
 290   SMTRY2   1  0.000000  1.000000  0.000000        0.00000            
 290   SMTRY3   1  0.000000  0.000000  1.000000        0.00000            
 290   SMTRY1   2 -1.000000  0.000000  0.000000       37.83450            
 290   SMTRY2   2  0.000000 -1.000000  0.000000        0.00000            
 290   SMTRY3   2  0.000000  0.000000  1.000000       43.76150            
 290   SMTRY1   3 -1.000000  0.000000  0.000000        0.00000            
 290   SMTRY2   3  0.000000  1.000000  0.000000       39.72200            
 290   SMTRY3   3  0.000000  0.000000 -1.000000       43.76150            
 290   SMTRY1   4  1.000000  0.000000  0.000000       37.83450            
 290   SMTRY2   4  0.000000 -1.000000  0.000000       39.72200            
 290   SMTRY3   4  0.000000  0.000000 -1.000000        0.00000            
 290                                                                      
 290 REMARK: NULL                                                         
 300                                                                      
 300 BIOMOLECULE: 1, 2                                                    
 300 SEE REMARK 350 FOR THE AUTHOR PROVIDED AND/OR PROGRAM                
 300 GENERATED ASSEMBLY INFORMATION FOR THE STRUCTURE IN                  
 300 THIS ENTRY. THE REMARK MAY ALSO PROVIDE INFORMATION ON               
 300 BURIED SURFACE AREA.                                                 
 350                                                                      
 350 COORDINATES FOR A COMPLETE MULTIMER REPRESENTING THE KNOWN           
 350 BIOLOGICALLY SIGNIFICANT OLIGOMERIZATION STATE OF THE                
 350 MOLECULE CAN BE GENERATED BY APPLYING BIOMT TRANSFORMATIONS          
 350 GIVEN BELOW.  BOTH NON-CRYSTALLOGRAPHIC AND                          
 350 CRYSTALLOGRAPHIC OPERATIONS ARE GIVEN.                               
 350                                                                      
 350 BIOMOLECULE: 1                                                       
 350 AUTHOR DETERMINED BIOLOGICAL UNIT: MONOMERIC                         
 350 APPLY THE FOLLOWING TO CHAINS: A                                     
 350   BIOMT1   1  1.000000  0.000000  0.000000        0.00000            
 350   BIOMT2   1  0.000000  1.000000  0.000000        0.00000            
 350   BIOMT3   1  0.000000  0.000000  1.000000        0.00000            
 350                                                                      
 350 BIOMOLECULE: 2                                                       
 350 AUTHOR DETERMINED BIOLOGICAL UNIT: MONOMERIC                         
 350 APPLY THE FOLLOWING TO CHAINS: B                                     
 350   BIOMT1   1  1.000000  0.000000  0.000000        0.00000            
 350   BIOMT2   1  0.000000  1.000000  0.000000        0.00000            
 350   BIOMT3   1  0.000000  0.000000  1.000000        0.00000            
 465                                                                      
 465 MISSING RESIDUES                                                     
 465 THE FOLLOWING RESIDUES WERE NOT LOCATED IN THE                       
 465 EXPERIMENT. (M=MODEL NUMBER; RES=RESIDUE NAME; C=CHAIN               
 465 IDENTIFIER; SSSEQ=SEQUENCE NUMBER; I=INSERTION CODE.)                
 465                                                                      
 465   M RES C SSSEQI                                                     
 465     ALA A    18                                                      
 465     ASP A   286                                                      
 465     LYS A   287                                                      
 465     ALA B    18                                                      
 465     LYS B   287                                                      
 500                                                                      
 500 GEOMETRY AND STEREOCHEMISTRY                                         
 500 SUBTOPIC: CLOSE CONTACTS IN SAME ASYMMETRIC UNIT                     
 500                                                                      
 500 THE FOLLOWING ATOMS ARE IN CLOSE CONTACT.                            
 500                                                                      
 500  ATM1  RES C  SSEQI   ATM2  RES C  SSEQI           DISTANCE          
 500   OG   SER B    64     B06  HD5 B   306              1.73            
 500   OG   SER B    64     B06  HD5 B   306              1.73            
 500   NH1  ARG A   217     O1   EDO A   402              1.77            
 500                                                                      
 500 REMARK: NULL                                                         
 500                                                                      
 500 GEOMETRY AND STEREOCHEMISTRY                                         
 500 SUBTOPIC: COVALENT BOND LENGTHS                                      
 500                                                                      
 500 THE STEREOCHEMICAL PARAMETERS OF THE FOLLOWING RESIDUES              
 500 HAVE VALUES WHICH DEVIATE FROM EXPECTED VALUES BY MORE               
 500 THAN 6*RMSD (M=MODEL NUMBER; RES=RESIDUE NAME; C=CHAIN               
 500 IDENTIFIER; SSEQ=SEQUENCE NUMBER; I=INSERTION CODE).                 
 500                                                                      
 500 STANDARD TABLE:                                                      
 500 FORMAT: (10X,I3,1X,2(A3,1X,A1,I4,A1,1X,A4,3X),1X,F6.3)               
 500                                                                      
 500 EXPECTED VALUES PROTEIN: ENGH AND HUBER, 1999                        
 500 EXPECTED VALUES NUCLEIC ACID: CLOWNEY ET AL 1996                     
 500                                                                      
 500  M RES CSSEQI ATM1   RES CSSEQI ATM2   DEVIATION                     
 500    SER A 196   CB    SER A 196   OG      0.079                       
 500    GLU B  98   CD    GLU B  98   OE2     0.071                       
 500                                                                      
 500 REMARK: NULL                                                         
 500                                                                      
 500 GEOMETRY AND STEREOCHEMISTRY                                         
 500 SUBTOPIC: TORSION ANGLES                                             
 500                                                                      
 500 TORSION ANGLES OUTSIDE THE EXPECTED RAMACHANDRAN REGIONS:            
 500 (M=MODEL NUMBER; RES=RESIDUE NAME; C=CHAIN IDENTIFIER;               
 500 SSEQ=SEQUENCE NUMBER; I=INSERTION CODE).                             
 500                                                                      
 500 STANDARD TABLE:                                                      
 500 FORMAT:(10X,I3,1X,A3,1X,A1,I4,A1,4X,F7.2,3X,F7.2)                    
 500                                                                      
 500 EXPECTED VALUES: GJ KLEYWEGT AND TA JONES (1996). PHI/PSI-           
 500 CHOLOGY: RAMACHANDRAN REVISITED. STRUCTURE 4, 1395 - 1400            
 500                                                                      
 500  M RES CSSEQI        PSI       PHI                                   
 500    CYS A  63     -140.45     44.56                                   
 500    CYS A  63     -147.87     58.09                                   
 500    TRP A  99       70.42     53.87                                   
 500    THR A 215     -136.70   -108.91                                   
 500    ALA A 259       75.18   -150.35                                   
 500    CYS B  63     -143.32     53.51                                   
 500    TRP B  99       75.38     57.48                                   
 500    TRP B  99       75.38     60.91                                   
 500    THR B 195     -160.58    -50.38                                   
 500    THR B 215     -135.88   -104.13                                   
 500    GLN B 247     -113.69     53.00                                   
 500                                                                      
 500 REMARK: NULL                                                         
 800                                                                      
 800 SITE                                                                 
 800 SITE_IDENTIFIER: AC1                                                 
 800 EVIDENCE_CODE: SOFTWARE                                              
 800 SITE_DESCRIPTION: binding site for residue EDO A 401                 
 800                                                                      
 800 SITE_IDENTIFIER: AC2                                                 
 800 EVIDENCE_CODE: SOFTWARE                                              
 800 SITE_DESCRIPTION: binding site for residue EDO A 402                 
 800                                                                      
 800 SITE_IDENTIFIER: AC3                                                 
 800 EVIDENCE_CODE: SOFTWARE                                              
 800 SITE_DESCRIPTION: binding site for residue EDO A 403                 
 800                                                                      
 800 SITE_IDENTIFIER: AC4                                                 
 800 EVIDENCE_CODE: SOFTWARE                                              
 800 SITE_DESCRIPTION: binding site for residue HD5 A 404                 
 800                                                                      
 800 SITE_IDENTIFIER: AC5                                                 
 800 EVIDENCE_CODE: SOFTWARE                                              
 800 SITE_DESCRIPTION: binding site for residue DMS A 405                 
 800                                                                      
 800 SITE_IDENTIFIER: AC6                                                 
 800 EVIDENCE_CODE: SOFTWARE                                              
 800 SITE_DESCRIPTION: binding site for residue EDO A 406                 
 800                                                                      
 800 SITE_IDENTIFIER: AC7                                                 
 800 EVIDENCE_CODE: SOFTWARE                                              
 800 SITE_DESCRIPTION: binding site for residue DMS A 407                 
 800                                                                      
 800 SITE_IDENTIFIER: AC8                                                 
 800 EVIDENCE_CODE: SOFTWARE                                              
 800 SITE_DESCRIPTION: binding site for residue DMS A 408                 
 800                                                                      
 800 SITE_IDENTIFIER: AC9                                                 
 800 EVIDENCE_CODE: SOFTWARE                                              
 800 SITE_DESCRIPTION: binding site for residue DMS A 409                 
 800                                                                      
 800 SITE_IDENTIFIER: AD1                                                 
 800 EVIDENCE_CODE: SOFTWARE                                              
 800 SITE_DESCRIPTION: binding site for residue DMS A 410                 
 800                                                                      
 800 SITE_IDENTIFIER: AD2                                                 
 800 EVIDENCE_CODE: SOFTWARE                                              
 800 SITE_DESCRIPTION: binding site for residue DMS A 411                 
 800                                                                      
 800 SITE_IDENTIFIER: AD3                                                 
 800 EVIDENCE_CODE: SOFTWARE                                              
 800 SITE_DESCRIPTION: binding site for residue DMS A 412                 
 800                                                                      
 800 SITE_IDENTIFIER: AD4                                                 
 800 EVIDENCE_CODE: SOFTWARE                                              
 800 SITE_DESCRIPTION: binding site for residue DMS A 413                 
 800                                                                      
 800 SITE_IDENTIFIER: AD5                                                 
 800 EVIDENCE_CODE: SOFTWARE                                              
 800 SITE_DESCRIPTION: binding site for residue EDO B 301                 
 800                                                                      
 800 SITE_IDENTIFIER: AD6                                                 
 800 EVIDENCE_CODE: SOFTWARE                                              
 800 SITE_DESCRIPTION: binding site for residue DMS B 302                 
 800                                                                      
 800 SITE_IDENTIFIER: AD7                                                 
 800 EVIDENCE_CODE: SOFTWARE                                              
 800 SITE_DESCRIPTION: binding site for residue EDO B 303                 
 800                                                                      
 800 SITE_IDENTIFIER: AD8                                                 
 800 EVIDENCE_CODE: SOFTWARE                                              
 800 SITE_DESCRIPTION: binding site for residue EDO B 304                 
 800                                                                      
 800 SITE_IDENTIFIER: AD9                                                 
 800 EVIDENCE_CODE: SOFTWARE                                              
 800 SITE_DESCRIPTION: binding site for residue EDO B 305                 
 800                                                                      
 800 SITE_IDENTIFIER: AE1                                                 
 800 EVIDENCE_CODE: SOFTWARE                                              
 800 SITE_DESCRIPTION: binding site for residue HD5 B 306                 
 800                                                                      
 800 SITE_IDENTIFIER: AE2                                                 
 800 EVIDENCE_CODE: SOFTWARE                                              
 800 SITE_DESCRIPTION: binding site for residue EDO B 307                 

>  <DBREF>
 6Q35 A   18   287  UNP    Q09HD0   Q09HD0_KLEPN    18    287             
 6Q35 B   18   287  UNP    Q09HD0   Q09HD0_KLEPN    18    287             

>  <SEQRES>
   1 A  270  ALA SER GLU LYS LEU THR PHE LYS THR ASP LEU GLU LYS          
   2 A  270  LEU GLU ARG GLU LYS ALA ALA GLN ILE GLY VAL ALA ILE          
   3 A  270  VAL ASP PRO GLN GLY GLU ILE VAL ALA GLY HIS ARG MET          
   4 A  270  ALA GLN ARG PHE ALA MET CYS SER THR PHE LYS PHE PRO          
   5 A  270  LEU ALA ALA LEU VAL PHE GLU ARG ILE ASP SER GLY THR          
   6 A  270  GLU ARG GLY ASP ARG LYS LEU SER TYR GLY PRO ASP MET          
   7 A  270  ILE VAL GLU TRP SER PRO ALA THR GLU ARG PHE LEU ALA          
   8 A  270  SER GLY HIS MET THR VAL LEU GLU ALA ALA GLN ALA ALA          
   9 A  270  VAL GLN LEU SER ASP ASN GLY ALA THR ASN LEU LEU LEU          
  10 A  270  ARG GLU ILE GLY GLY PRO ALA ALA MET THR GLN TYR PHE          
  11 A  270  ARG LYS ILE GLY ASP SER VAL SER ARG LEU ASP ARG LYS          
  12 A  270  GLU PRO GLU MET SER ASP ASN THR PRO GLY ASP LEU ARG          
  13 A  270  ASP THR THR THR PRO ILE ALA MET ALA ARG THR VAL ALA          
  14 A  270  LYS VAL LEU TYR GLY GLY ALA LEU THR SER THR SER THR          
  15 A  270  HIS THR ILE GLU ARG TRP LEU ILE GLY ASN GLN THR GLY          
  16 A  270  ASP ALA THR LEU ARG ALA GLY PHE PRO LYS ASP TRP VAL          
  17 A  270  VAL GLY GLU LYS THR GLY THR CYS ALA ASN GLY GLY ARG          
  18 A  270  ASN ASP ILE GLY PHE PHE LYS ALA GLN GLU ARG ASP TYR          
  19 A  270  ALA VAL ALA VAL TYR THR THR ALA PRO LYS LEU SER ALA          
  20 A  270  VAL GLU ARG ASP GLU LEU VAL ALA SER VAL GLY GLN VAL          
  21 A  270  ILE THR GLN LEU ILE LEU SER THR ASP LYS                      
   1 B  270  ALA SER GLU LYS LEU THR PHE LYS THR ASP LEU GLU LYS          
   2 B  270  LEU GLU ARG GLU LYS ALA ALA GLN ILE GLY VAL ALA ILE          
   3 B  270  VAL ASP PRO GLN GLY GLU ILE VAL ALA GLY HIS ARG MET          
   4 B  270  ALA GLN ARG PHE ALA MET CYS SER THR PHE LYS PHE PRO          
   5 B  270  LEU ALA ALA LEU VAL PHE GLU ARG ILE ASP SER GLY THR          
   6 B  270  GLU ARG GLY ASP ARG LYS LEU SER TYR GLY PRO ASP MET          
   7 B  270  ILE VAL GLU TRP SER PRO ALA THR GLU ARG PHE LEU ALA          
   8 B  270  SER GLY HIS MET THR VAL LEU GLU ALA ALA GLN ALA ALA          
   9 B  270  VAL GLN LEU SER ASP ASN GLY ALA THR ASN LEU LEU LEU          
  10 B  270  ARG GLU ILE GLY GLY PRO ALA ALA MET THR GLN TYR PHE          
  11 B  270  ARG LYS ILE GLY ASP SER VAL SER ARG LEU ASP ARG LYS          
  12 B  270  GLU PRO GLU MET SER ASP ASN THR PRO GLY ASP LEU ARG          
  13 B  270  ASP THR THR THR PRO ILE ALA MET ALA ARG THR VAL ALA          
  14 B  270  LYS VAL LEU TYR GLY GLY ALA LEU THR SER THR SER THR          
  15 B  270  HIS THR ILE GLU ARG TRP LEU ILE GLY ASN GLN THR GLY          
  16 B  270  ASP ALA THR LEU ARG ALA GLY PHE PRO LYS ASP TRP VAL          
  17 B  270  VAL GLY GLU LYS THR GLY THR CYS ALA ASN GLY GLY ARG          
  18 B  270  ASN ASP ILE GLY PHE PHE LYS ALA GLN GLU ARG ASP TYR          
  19 B  270  ALA VAL ALA VAL TYR THR THR ALA PRO LYS LEU SER ALA          
  20 B  270  VAL GLU ARG ASP GLU LEU VAL ALA SER VAL GLY GLN VAL          
  21 B  270  ILE THR GLN LEU ILE LEU SER THR ASP LYS                      

>  <HET>
 EDO  A 401       4                                                       
 EDO  A 402       4                                                       
 EDO  A 403       4                                                       
 HD5  A 404      28                                                       
 DMS  A 405       4                                                       
 EDO  A 406       4                                                       
 DMS  A 407       4                                                       
 DMS  A 408       4                                                       
 DMS  A 409       4                                                       
 DMS  A 410       4                                                       
 DMS  A 411       4                                                       
 DMS  A 412       4                                                       
 DMS  A 413       4                                                       
 EDO  B 301       4                                                       
 DMS  B 302       4                                                       
 EDO  B 303       8                                                       
 EDO  B 304       4                                                       
 EDO  B 305       4                                                       
 HD5  B 306      28                                                       
 EDO  B 307       4                                                       

>  <HETNAM>
     EDO 1,2-ETHANEDIOL                                                   
     HD5 [5-(AMINOMETHYL)-1-BENZOTHIOPHEN-2-YL]BORONIC ACID               
     DMS DIMETHYL SULFOXIDE                                               

>  <HETSYN>
     EDO ETHYLENE GLYCOL                                                  

>  <FORMUL>
   3  EDO    9(C2 H6 O2)                                                  
   6  HD5    2(C9 H10 B N O2 S)                                           
   7  DMS    9(C2 H6 O S)                                                 
  23  HOH   *281(H2 O)                                                    

>  <HELIX>
   1 AA1 SER A   19  ALA A   36  1                                  18    
   2 AA2 CYS A   63  THR A   65  5                                   3    
   3 AA3 PHE A   66  SER A   80  1                                  15    
   4 AA4 GLY A   92  ILE A   96  5                                   5    
   5 AA5 SER A  100  LEU A  107  1                                   8    
   6 AA6 VAL A  114  SER A  125  1                                  12    
   7 AA7 ASP A  126  GLY A  138  1                                  13    
   8 AA8 GLY A  139  ILE A  150  1                                  12    
   9 AA9 PRO A  162  ASP A  166  5                                   5    
  10 AB1 THR A  177  GLY A  191  1                                  15    
  11 AB2 THR A  195  GLY A  208  1                                  14    
  12 AB3 THR A  215  PHE A  220  5                                   6    
  13 AB4 SER A  263  THR A  285  1                                  23    
  14 AB5 GLU B   20  ALA B   36  1                                  17    
  15 AB6 CYS B   63  THR B   65  5                                   3    
  16 AB7 PHE B   66  SER B   80  1                                  15    
  17 AB8 GLY B   92  ILE B   96  5                                   5    
  18 AB9 SER B  100  LEU B  107  1                                   8    
  19 AC1 VAL B  114  SER B  125  1                                  12    
  20 AC2 ASP B  126  GLY B  138  1                                  13    
  21 AC3 GLY B  138  ILE B  150  1                                  13    
  22 AC4 PRO B  162  ASP B  166  5                                   5    
  23 AC5 THR B  177  GLY B  191  1                                  15    
  24 AC6 THR B  197  GLY B  208  1                                  12    
  25 AC7 THR B  215  PHE B  220  5                                   6    
  26 AC8 SER B  263  SER B  284  1                                  22    

>  <SHEET>
   1 AA1 5 ILE A  50  HIS A  54  0                                        
   2 AA1 5 GLN A  38  VAL A  44 -1  N  ILE A  43   O  VAL A  51           
   3 AA1 5 ARG A 249  THR A 258 -1  O  TYR A 256   N  GLY A  40           
   4 AA1 5 GLY A 237  ALA A 246 -1  N  ASP A 240   O  VAL A 255           
   5 AA1 5 VAL A 225  CYS A 233 -1  N  LYS A 229   O  ILE A 241           
   1 AA2 2 PHE A  60  ALA A  61  0                                        
   2 AA2 2 THR A 175  THR A 176 -1  O  THR A 176   N  PHE A  60           
   1 AA3 2 LYS A  88  SER A  90  0                                        
   2 AA3 2 HIS A 111  THR A 113 -1  O  MET A 112   N  LEU A  89           
   1 AA4 5 ILE B  50  HIS B  54  0                                        
   2 AA4 5 GLN B  38  VAL B  44 -1  N  ILE B  43   O  VAL B  51           
   3 AA4 5 ARG B 249  THR B 258 -1  O  TYR B 256   N  GLY B  40           
   4 AA4 5 GLY B 237  ALA B 246 -1  N  ASP B 240   O  VAL B 255           
   5 AA4 5 VAL B 225  CYS B 233 -1  N  LYS B 229   O  ILE B 241           
   1 AA5 2 PHE B  60  ALA B  61  0                                        
   2 AA5 2 THR B 175  THR B 176 -1  O  THR B 176   N  PHE B  60           
   1 AA6 2 LYS B  88  SER B  90  0                                        
   2 AA6 2 HIS B 111  THR B 113 -1  O  MET B 112   N  LEU B  89           

>  <SSBOND>
   1 CYS A   63    CYS A  233                          1555   1555  2.12  
   2 CYS B   63    CYS B  233                          1555   1555  1.92  

>  <LINK>
       OG  SER A  64                 B06AHD5 A 404     1555   1555  1.63  
       OG  SER A  64                 B06BHD5 A 404     1555   1555  1.60  

>  <CISPEP>
   1 GLU A  161    PRO A  162          0         3.80                     
   2 GLU B  161    PRO B  162          0        -1.40                     

>  <SITE>
   1 AC1  7 ARG A 217  PHE A 220  PRO A 221  LYS A 222                    
   2 AC1  7 TRP A 224  VAL A 226  ALA B 108                               
   1 AC2  3 ASP A 213  ARG A 217  ARG B 105                               
   1 AC3  4 THR A 232  CYS A 233  ALA A 234  HD5 A 404                    
   1 AC4 13 CYS A  63  SER A  64  LYS A  67  GLU A  98                    
   2 AC4 13 TRP A  99  ASN A 127  GLU A 161  PRO A 162                    
   3 AC4 13 SER A 165  GLY A 231  THR A 232  EDO A 403                    
   4 AC4 13 DMS A 405                                                     
   1 AC5  9 SER A  64  SER A 125  THR A 211  LYS A 229                    
   2 AC5  9 THR A 230  GLY A 231  THR A 232  ARG A 238                    
   3 AC5  9 HD5 A 404                                                     
   1 AC6  4 THR A 113  GLU A 116  HOH A 606  ARG B 204                    
   1 AC7  5 ALA A  36  GLN A  38  ARG A 135  GLU A 136                    
   2 AC7  5 HOH A 509                                                     
   1 AC8  7 ARG A  59  ASN A 167  THR A 168  PRO A 169                    
   2 AC8  7 GLY A 170  ASP A 171  HOH A 519                               
   1 AC9  4 GLN A 145  LYS A 149  GLY B  81  GLU B  83                    
   1 AD1  4 GLY A  81  GLU A  83  ARG A  84  LEU B  22                    
   1 AD2  6 ALA A 141  THR A 144  LEU A 157  ASP A 158                    
   2 AD2  6 HOH A 575  GLU B 248                                          
   1 AD3  3 PHE A  75  ILE A  78  LEU A 115                               
   1 AD4  3 LYS A 222  PRO B  93  HOH B 496                               
   1 AD5  7 ALA A 102  PHE A 106  LEU A 124  GLN B 123                    
   2 AD5  7 GLN B 210  HOH B 448  HOH B 489                               
   1 AD6  9 SER B  64  SER B 125  THR B 211  LYS B 229                    
   2 AD6  9 THR B 230  GLY B 231  THR B 232  ARG B 238                    
   3 AD6  9 HD5 B 306                                                     
   1 AD7 12 GLN A 123  GLY A 208  GLN A 210  HOH A 560                    
   2 AD7 12 ALA B 102  PHE B 106  GLU B 116  GLN B 119                    
   3 AD7 12 ALA B 120  LEU B 124  EDO B 307  HOH B 401                    
   1 AD8  3 ARG B  59  GLY B 170  ASP B 171                               
   1 AD9  4 THR B 232  CYS B 233  ALA B 234  HD5 B 306                    
   1 AE1 11 CYS B  63  SER B  64  GLU B  98  TRP B  99                    
   2 AE1 11 ASN B 127  GLU B 161  SER B 165  GLY B 231                    
   3 AE1 11 THR B 232  DMS B 302  EDO B 305                               
   1 AE2  6 GLN A 123  ARG A 204  TRP A 205  PHE B 106                    
   2 AE2  6 GLU B 116  EDO B 303                                          

>  <ORIGX1>
      1.000000  0.000000  0.000000        0.00000                         

>  <ORIGX2>
      0.000000  1.000000  0.000000        0.00000                         

>  <ORIGX3>
      0.000000  0.000000  1.000000        0.00000                         

>  <SCALE1>
      0.013215  0.000000  0.000000        0.00000                         

>  <SCALE2>
      0.000000  0.012587  0.000000        0.00000                         

>  <SCALE3>
      0.000000  0.000000  0.011426        0.00000                         

>  <ANISOU>
  353  N   SER A  64     1299   2130   1679    211    161    126       N  
  354  CA  SER A  64     1455   2110   1863    176    228    266       C  
  355  C   SER A  64     1558   1280   1895    307    167    -79       C  
  356  O   SER A  64     1835   1613   1451    246    229     56       O  
  357  CB  SER A  64     1521   2211   1760    304    221   -100       C  
  358  OG  SER A  64     2250   1944   2022    287    303   -114       O  
 4210  C14AHD5 A 404     6221   2766   3256    364     63   -728       C  
 4211  C14BHD5 A 404     6221   2766   3256    364     63   -728       C  
 4212  C13AHD5 A 404     5639   1507   4839    728    437   -580       C  
 4213  C13BHD5 A 404     5639   1507   4839    728    437   -580       C  
 4214  C12AHD5 A 404     4635   1105   4402   -112    298     87       C  
 4215  C12BHD5 A 404     4635   1105   4402   -112    298     87       C  
 4216  C11AHD5 A 404     4731     84   3612    -16    841    266       C  
 4217  C11BHD5 A 404     4731     84   3612    -16    841    266       C  
 4218  C01AHD5 A 404     5160   1010   4458   1005    466   -382       C  
 4219  C01BHD5 A 404     5160   1010   4458   1005    466   -382       C  
 4220  C02AHD5 A 404     3823   2134   4242   1229   1110   -719       C  
 4221  C02BHD5 A 404     3823   2134   4242   1229   1110   -719       C  
 4222  C03AHD5 A 404     4504   2454   3658   1175   1083   -572       C  
 4223  C03BHD5 A 404     4504   2454   3658   1175   1083   -572       C  
 4224  C04AHD5 A 404     3315   2838   3328    919   1137    -91       C  
 4225  C04BHD5 A 404     3315   2838   3328    919   1137    -91       C  
 4226  C05AHD5 A 404     3454   1894   2538    849   1056    115       C  
 4227  C05BHD5 A 404     3454   1894   2538    849   1056    115       C  
 4228  B06AHD5 A 404     3281   2033   2525    238    715   -152       B  
 4229  B06BHD5 A 404     3281   2033   2525    238    715   -152       B  
 4230  O07AHD5 A 404     1589   2078   1345     44    733    334       O  
 4231  O07BHD5 A 404     1589   2078   1345     44    733    334       O  
 4232  O09AHD5 A 404     3065   3085   2713   -252     46    194       O  
 4233  O09BHD5 A 404     3065   3085   2713   -252     46    194       O  
 4234  S10AHD5 A 404     3945   1966   3717   1102    286    149       S  
 4235  S10BHD5 A 404     3945   1966   3717   1102    286    149       S  
 4236  N15AHD5 A 404     5754   4527   4508    220    119  -1379       N  
 4237  N15BHD5 A 404     5754   4527   4508    220    119  -1379       N  

>  <MASTER>
      394    0   20   26   18    0   37    6 4461    2  139   42          

$$$$
