start_structures/Ligand_Substrate/Ligand_Complex_Stripped/HOQ_1K54.pdb
 OpenBabel08222315213D

 23 23  0  0  1  0  0  0  0  0999 V2000
   19.2620    6.7390   35.7470 N   0  0  0  0  0  0  0  0  0  0  0  0
   18.0040    7.3570   36.1100 C   0  0  2  0  0  0  0  0  0  0  0  0
   17.9800    8.4810   37.1430 C   0  0  0  0  0  0  0  0  0  0  0  0
   17.1000    9.3320   37.1070 O   0  0  0  0  0  0  0  0  0  0  0  0
   16.8240    6.3710   36.1600 C   0  0  0  0  0  0  0  0  0  0  0  0
   16.7550    5.7390   34.8780 O   0  0  0  0  0  0  0  0  0  0  0  0
   17.4640    4.5510   34.7530 C   0  0  0  0  0  0  0  0  0  0  0  0
   18.0110    4.1050   35.7500 O   0  0  0  0  0  0  0  0  0  0  0  0
   17.5250    3.8700   33.4220 C   0  0  1  0  0  0  0  0  0  0  0  0
   18.8240    4.2400   32.7070 C   0  0  0  0  0  0  0  0  0  0  0  0
   19.1910    5.5550   33.1430 O   0  0  0  0  0  0  0  0  0  0  0  0
   17.3610    2.3450   33.5420 C   0  0  1  0  0  0  0  0  0  0  0  0
   15.8360    1.8820   34.4020 S   0  0  0  0  0  0  0  0  0  0  0  0
   15.1470    0.9650   33.0060 C   0  0  0  0  0  0  0  0  0  0  0  0
   13.7130    1.3710   32.7880 C   0  0  0  0  0  0  0  0  0  0  0  0
   15.2580   -0.5120   33.3070 C   0  0  0  0  0  0  0  0  0  0  0  0
   16.0290    1.4020   31.8150 C   0  0  2  0  0  0  0  0  0  0  0  0
   15.9520    0.3220   30.6680 C   0  0  0  0  0  0  0  0  0  0  0  0
   14.9340    0.3210   29.9380 O   0  0  0  0  0  0  0  0  0  0  0  0
   16.9290   -0.4560   30.5750 O   0  0  0  0  0  0  0  0  0  0  0  0
   17.3890    1.6590   32.2650 N   0  0  0  0  0  0  0  0  0  0  0  0
   18.5320    4.3120   31.2040 C   0  0  0  0  0  0  0  0  0  0  0  0
   19.9970    3.2910   32.9600 C   0  0  0  0  0  0  0  0  0  0  0  0
  2  1  1  1  0  0  0
  2  5  1  0  0  0  0
  2  3  1  0  0  0  0
  4  3  2  0  0  0  0
  6  7  1  0  0  0  0
  6  5  1  0  0  0  0
  7  8  2  0  0  0  0
  9  7  1  1  0  0  0
  9 10  1  0  0  0  0
 10 11  1  0  0  0  0
 10 22  1  0  0  0  0
 10 23  1  0  0  0  0
 12  9  1  6  0  0  0
 12 13  1  0  0  0  0
 12 21  1  0  0  0  0
 13 14  1  0  0  0  0
 14 15  1  0  0  0  0
 14 16  1  0  0  0  0
 14 17  1  0  0  0  0
 17 18  1  6  0  0  0
 17 21  1  0  0  0  0
 18 19  2  0  0  0  0
 18 20  1  0  0  0  0
M  END
>  <HEADER>
    HYDROLASE                               10-OCT-01   1K54              

>  <TITLE>
    OXA-10 CLASS D BETA-LACTAMASE PARTIALLY ACYLATED WITH REACTED 6BETA-  
   2 (1-HYDROXY-1-METHYLETHYL) PENICILLANIC ACID                          

>  <COMPND>
    MOL_ID: 1;                                                            
   2 MOLECULE: BETA LACTAMASE OXA-10;                                     
   3 CHAIN: A, B;                                                         
   4 SYNONYM: BETA-LACTAMASE PSE-2;                                       
   5 EC: 3.5.2.6;                                                         
   6 ENGINEERED: YES;                                                     
   7 OTHER_DETAILS: RESIDUE 70 IS KCX, CARBAMYLATED LYSINE. ACYLATED AT   
   8 SER 67.;                                                             
   9 MOL_ID: 2;                                                           
  10 MOLECULE: BETA LACTAMASE OXA-10;                                     
  11 CHAIN: C, D;                                                         
  12 SYNONYM: BETA-LACTAMASE PSE-2;                                       
  13 EC: 3.5.2.6;                                                         
  14 ENGINEERED: YES                                                      

>  <SOURCE>
    MOL_ID: 1;                                                            
   2 ORGANISM_SCIENTIFIC: PSEUDOMONAS AERUGINOSA;                         
   3 ORGANISM_TAXID: 287;                                                 
   4 EXPRESSION_SYSTEM: ESCHERICHIA COLI BL21(DE3);                       
   5 EXPRESSION_SYSTEM_TAXID: 469008;                                     
   6 EXPRESSION_SYSTEM_STRAIN: BL21 DE3;                                  
   7 EXPRESSION_SYSTEM_VECTOR_TYPE: PET24A;                               
   8 MOL_ID: 2;                                                           
   9 ORGANISM_SCIENTIFIC: PSEUDOMONAS AERUGINOSA;                         
  10 ORGANISM_TAXID: 287;                                                 
  11 EXPRESSION_SYSTEM: ESCHERICHIA COLI BL21(DE3);                       
  12 EXPRESSION_SYSTEM_TAXID: 469008;                                     
  13 EXPRESSION_SYSTEM_STRAIN: BL21 DE3;                                  
  14 EXPRESSION_SYSTEM_VECTOR_TYPE: PET24A                                

>  <KEYWDS>
    BETA-LACTAMASE, ANTIBIOTIC RESISTANCE, CARBAMYLATION, HYDROLASE       

>  <EXPDTA>
    X-RAY DIFFRACTION                                                     

>  <AUTHOR>
    D.GOLEMI,L.MAVEYRAUD,S.VAKULENKO,J.P.SAMAMA,S.MOBASHERY               

>  <REVDAT>
   5   16-AUG-23 1K54    1       REMARK SEQADV LINK                       
   4   13-JUL-11 1K54    1       VERSN                                    
   3   24-FEB-09 1K54    1       VERSN                                    
   2   19-DEC-01 1K54    1       JRNL                                     
   1   07-NOV-01 1K54    0                                                

>  <JRNL>
      AUTH   D.GOLEMI,L.MAVEYRAUD,S.VAKULENKO,J.P.SAMAMA,S.MOBASHERY      
      TITL   CRITICAL INVOLVEMENT OF A CARBAMYLATED LYSINE IN CATALYTIC   
      TITL 2 FUNCTION OF CLASS D BETA-LACTAMASES.                         
      REF    PROC.NATL.ACAD.SCI.USA        V.  98 14280 2001              
      REFN                   ISSN 0027-8424                               
      PMID   11724923                                                     
      DOI    10.1073/PNAS.241442898                                       

>  <REMARK>
   1                                                                      
   1 REFERENCE 1                                                          
   1  AUTH   L.MAVEYRAUD,D.GOLEMI,L.P.KOTRA,S.TRANIER,S.VAKULENKO,        
   1  AUTH 2 S.MOBASHERY,J.P.SAMAMA                                       
   1  TITL   INSIGHTS INTO CLASS D BETA-LACTAMASES ARE REVEALED BY THE    
   1  TITL 2 CRYSTAL STRUCTURE OF THE OXA10 ENZYME FROM PSEUDOMONAS       
   1  TITL 3 AERUGINOSA                                                   
   1  REF    STRUCTURE                     V.   8  1289 2000              
   1  REFN                   ISSN 0969-2126                               
   1  DOI    10.1016/S0969-2126(00)00534-7                                
   1 REFERENCE 2                                                          
   1  AUTH   D.GOLEMI,L.MAVEYRAUD,S.VAKULENKO,S.TRANIER,A.ISHIWATA,       
   1  AUTH 2 L.P.KOTRA,J.P.SAMAMA,S.MOBASHERY                             
   1  TITL   THE FIRST STRUCTURAL AND MECHANISTIC INSIGHTS FOR CLASS D    
   1  TITL 2 BETA-LACTAMASES: EVIDENCE FOR A NOVEL CATALYTIC PROCESS FOR  
   1  TITL 3 TURNOVER OF BETA-LACTAM ANTIBIOTIC                           
   1  REF    J.AM.CHEM.SOC.                V. 122  6132 2000              
   1  REFN                   ISSN 0002-7863                               
   1  DOI    10.1021/JA0013881                                            
   2                                                                      
   2 RESOLUTION.    1.70 ANGSTROMS.                                       
   3                                                                      
   3 REFINEMENT.                                                          
   3   PROGRAM     : REFMAC                                               
   3   AUTHORS     : MURSHUDOV,SKUBAK,LEBEDEV,PANNU,STEINER,              
   3               : NICHOLLS,WINN,LONG,VAGIN                             
   3                                                                      
   3    REFINEMENT TARGET : ENGH & HUBER                                  
   3                                                                      
   3  DATA USED IN REFINEMENT.                                            
   3   RESOLUTION RANGE HIGH (ANGSTROMS) : 1.70                           
   3   RESOLUTION RANGE LOW  (ANGSTROMS) : 44.77                          
   3   DATA CUTOFF            (SIGMA(F)) : 0.000                          
   3   COMPLETENESS FOR RANGE        (%) : 99.1                           
   3   NUMBER OF REFLECTIONS             : 119608                         
   3                                                                      
   3  FIT TO DATA USED IN REFINEMENT.                                     
   3   CROSS-VALIDATION METHOD          : THROUGHOUT                      
   3   FREE R VALUE TEST SET SELECTION  : RANDOM                          
   3   R VALUE     (WORKING + TEST SET) : 0.177                           
   3   R VALUE            (WORKING SET) : 0.177                           
   3   FREE R VALUE                     : 0.210                           
   3   FREE R VALUE TEST SET SIZE   (%) : 1.500                           
   3   FREE R VALUE TEST SET COUNT      : 1794                            
   3                                                                      
   3  FIT IN THE HIGHEST RESOLUTION BIN.                                  
   3   TOTAL NUMBER OF BINS USED           : 20                           
   3   BIN RESOLUTION RANGE HIGH       (A) : 1.70                         
   3   BIN RESOLUTION RANGE LOW        (A) : NULL                         
   3   REFLECTION IN BIN     (WORKING SET) : NULL                         
   3   BIN COMPLETENESS (WORKING+TEST) (%) : NULL                         
   3   BIN R VALUE           (WORKING SET) : 0.2250                       
   3   BIN FREE R VALUE SET COUNT          : NULL                         
   3   BIN FREE R VALUE                    : 0.2770                       
   3                                                                      
   3  NUMBER OF NON-HYDROGEN ATOMS USED IN REFINEMENT.                    
   3   PROTEIN ATOMS            : 7614                                    
   3   NUCLEIC ACID ATOMS       : 0                                       
   3   HETEROGEN ATOMS          : 143                                     
   3   SOLVENT ATOMS            : 821                                     
   3                                                                      
   3  B VALUES.                                                           
   3   FROM WILSON PLOT           (A**2) : 20.12                          
   3   MEAN B VALUE      (OVERALL, A**2) : 16.80                          
   3   OVERALL ANISOTROPIC B VALUE.                                       
   3    B11 (A**2) : 0.35000                                              
   3    B22 (A**2) : -0.20000                                             
   3    B33 (A**2) : -0.15000                                             
   3    B12 (A**2) : 0.00000                                              
   3    B13 (A**2) : 0.03000                                              
   3    B23 (A**2) : 0.00000                                              
   3                                                                      
   3  ESTIMATED OVERALL COORDINATE ERROR.                                 
   3   ESU BASED ON R VALUE                            (A): NULL          
   3   ESU BASED ON FREE R VALUE                       (A): NULL          
   3   ESU BASED ON MAXIMUM LIKELIHOOD                 (A): NULL          
   3   ESU FOR B VALUES BASED ON MAXIMUM LIKELIHOOD (A**2): NULL          
   3                                                                      
   3 CORRELATION COEFFICIENTS.                                            
   3   CORRELATION COEFFICIENT FO-FC      : NULL                          
   3   CORRELATION COEFFICIENT FO-FC FREE : NULL                          
   3                                                                      
   3  RMS DEVIATIONS FROM IDEAL VALUES        COUNT    RMS    WEIGHT      
   3   BOND LENGTHS REFINED ATOMS        (A):  NULL ;  NULL ;  NULL       
   3   BOND LENGTHS OTHERS               (A):  NULL ;  NULL ;  NULL       
   3   BOND ANGLES REFINED ATOMS   (DEGREES):  NULL ;  NULL ;  NULL       
   3   BOND ANGLES OTHERS          (DEGREES):  NULL ;  NULL ;  NULL       
   3   TORSION ANGLES, PERIOD 1    (DEGREES):  NULL ;  NULL ;  NULL       
   3   TORSION ANGLES, PERIOD 2    (DEGREES):  NULL ;  NULL ;  NULL       
   3   TORSION ANGLES, PERIOD 3    (DEGREES):  NULL ;  NULL ;  NULL       
   3   TORSION ANGLES, PERIOD 4    (DEGREES):  NULL ;  NULL ;  NULL       
   3   CHIRAL-CENTER RESTRAINTS       (A**3):  NULL ;  NULL ;  NULL       
   3   GENERAL PLANES REFINED ATOMS      (A):  NULL ;  NULL ;  NULL       
   3   GENERAL PLANES OTHERS             (A):  NULL ;  NULL ;  NULL       
   3   NON-BONDED CONTACTS REFINED ATOMS (A):  NULL ;  NULL ;  NULL       
   3   NON-BONDED CONTACTS OTHERS        (A):  NULL ;  NULL ;  NULL       
   3   NON-BONDED TORSION REFINED ATOMS  (A):  NULL ;  NULL ;  NULL       
   3   NON-BONDED TORSION OTHERS         (A):  NULL ;  NULL ;  NULL       
   3   H-BOND (X...Y) REFINED ATOMS      (A):  NULL ;  NULL ;  NULL       
   3   H-BOND (X...Y) OTHERS             (A):  NULL ;  NULL ;  NULL       
   3   POTENTIAL METAL-ION REFINED ATOMS (A):  NULL ;  NULL ;  NULL       
   3   POTENTIAL METAL-ION OTHERS        (A):  NULL ;  NULL ;  NULL       
   3   SYMMETRY VDW REFINED ATOMS        (A):  NULL ;  NULL ;  NULL       
   3   SYMMETRY VDW OTHERS               (A):  NULL ;  NULL ;  NULL       
   3   SYMMETRY H-BOND REFINED ATOMS     (A):  NULL ;  NULL ;  NULL       
   3   SYMMETRY H-BOND OTHERS            (A):  NULL ;  NULL ;  NULL       
   3   SYMMETRY METAL-ION REFINED ATOMS  (A):  NULL ;  NULL ;  NULL       
   3   SYMMETRY METAL-ION OTHERS         (A):  NULL ;  NULL ;  NULL       
   3                                                                      
   3  ISOTROPIC THERMAL FACTOR RESTRAINTS.     COUNT   RMS    WEIGHT      
   3   MAIN-CHAIN BOND REFINED ATOMS  (A**2):  NULL ;  NULL ;  NULL       
   3   MAIN-CHAIN BOND OTHER ATOMS    (A**2):  NULL ;  NULL ;  NULL       
   3   MAIN-CHAIN ANGLE REFINED ATOMS (A**2):  NULL ;  NULL ;  NULL       
   3   MAIN-CHAIN ANGLE OTHER ATOMS   (A**2):  NULL ;  NULL ;  NULL       
   3   SIDE-CHAIN BOND REFINED ATOMS  (A**2):  NULL ;  NULL ;  NULL       
   3   SIDE-CHAIN BOND OTHER ATOMS    (A**2):  NULL ;  NULL ;  NULL       
   3   SIDE-CHAIN ANGLE REFINED ATOMS (A**2):  NULL ;  NULL ;  NULL       
   3   SIDE-CHAIN ANGLE OTHER ATOMS   (A**2):  NULL ;  NULL ;  NULL       
   3   LONG RANGE B REFINED ATOMS     (A**2):  NULL ;  NULL ;  NULL       
   3   LONG RANGE B OTHER ATOMS       (A**2):  NULL ;  NULL ;  NULL       
   3                                                                      
   3 ANISOTROPIC THERMAL FACTOR RESTRAINTS.    COUNT   RMS   WEIGHT       
   3   RIGID-BOND RESTRAINTS          (A**2):  NULL ;  NULL ;  NULL       
   3   SPHERICITY; FREE ATOMS         (A**2):  NULL ;  NULL ;  NULL       
   3   SPHERICITY; BONDED ATOMS       (A**2):  NULL ;  NULL ;  NULL       
   3                                                                      
   3  NCS RESTRAINTS STATISTICS                                           
   3   NUMBER OF DIFFERENT NCS GROUPS : NULL                              
   3                                                                      
   3  TLS DETAILS                                                         
   3   NUMBER OF TLS GROUPS  : NULL                                       
   3                                                                      
   3  BULK SOLVENT MODELLING.                                             
   3   METHOD USED : NULL                                                 
   3   PARAMETERS FOR MASK CALCULATION                                    
   3   VDW PROBE RADIUS   : NULL                                          
   3   ION PROBE RADIUS   : NULL                                          
   3   SHRINKAGE RADIUS   : NULL                                          
   3                                                                      
   3  OTHER REFINEMENT REMARKS: NULL                                      
   4                                                                      
   4 1K54 COMPLIES WITH FORMAT V. 3.30, 13-JUL-11                         
 100                                                                      
 100 THIS ENTRY HAS BEEN PROCESSED BY RCSB ON 29-OCT-01.                  
 100 THE DEPOSITION ID IS D_1000014571.                                   
 200                                                                      
 200 EXPERIMENTAL DETAILS                                                 
 200  EXPERIMENT TYPE                : X-RAY DIFFRACTION                  
 200  DATE OF DATA COLLECTION        : 27-JUN-00                          
 200  TEMPERATURE           (KELVIN) : 100                                
 200  PH                             : 7.5                                
 200  NUMBER OF CRYSTALS USED        : 1                                  
 200                                                                      
 200  SYNCHROTRON              (Y/N) : Y                                  
 200  RADIATION SOURCE               : ESRF                               
 200  BEAMLINE                       : ID14-2                             
 200  X-RAY GENERATOR MODEL          : NULL                               
 200  MONOCHROMATIC OR LAUE    (M/L) : M                                  
 200  WAVELENGTH OR RANGE        (A) : 0.933                              
 200  MONOCHROMATOR                  : DIAMOND [111]                      
 200  OPTICS                         : NULL                               
 200                                                                      
 200  DETECTOR TYPE                  : CCD                                
 200  DETECTOR MANUFACTURER          : ADSC QUANTUM 4                     
 200  INTENSITY-INTEGRATION SOFTWARE : MOSFLM                             
 200  DATA SCALING SOFTWARE          : SCALA, CCP4 (SCALA)                
 200                                                                      
 200  NUMBER OF UNIQUE REFLECTIONS   : 119631                             
 200  RESOLUTION RANGE HIGH      (A) : 1.700                              
 200  RESOLUTION RANGE LOW       (A) : 44.770                             
 200  REJECTION CRITERIA  (SIGMA(I)) : 0.000                              
 200                                                                      
 200 OVERALL.                                                             
 200  COMPLETENESS FOR RANGE     (%) : 99.1                               
 200  DATA REDUNDANCY                : 3.600                              
 200  R MERGE                    (I) : 0.06400                            
 200  R SYM                      (I) : 0.06400                            
 200  <I/SIGMA(I)> FOR THE DATA SET  : 12.9000                            
 200                                                                      
 200 IN THE HIGHEST RESOLUTION SHELL.                                     
 200  HIGHEST RESOLUTION SHELL, RANGE HIGH (A) : 1.70                     
 200  HIGHEST RESOLUTION SHELL, RANGE LOW  (A) : 1.79                     
 200  COMPLETENESS FOR SHELL     (%) : 93.8                               
 200  DATA REDUNDANCY IN SHELL       : 2.80                               
 200  R MERGE FOR SHELL          (I) : 0.28900                            
 200  R SYM FOR SHELL            (I) : 0.28900                            
 200  <I/SIGMA(I)> FOR SHELL         : 3.200                              
 200                                                                      
 200 DIFFRACTION PROTOCOL: SINGLE WAVELENGTH                              
 200 METHOD USED TO DETERMINE THE STRUCTURE: FOURIER SYNTHESIS            
 200 SOFTWARE USED: NULL                                                  
 200 STARTING MODEL: PDB ENTRY 1E4D                                       
 200                                                                      
 200 REMARK: NULL                                                         
 280                                                                      
 280 CRYSTAL                                                              
 280 SOLVENT CONTENT, VS   (%): 51.41                                     
 280 MATTHEWS COEFFICIENT, VM (ANGSTROMS**3/DA): 2.53                     
 280                                                                      
 280 CRYSTALLIZATION CONDITIONS: AMMONIUM SULAFATE, HEPES, PH 7.5,        
 280  VAPOR DIFFUSION, HANGING DROP, TEMPERATURE 277K                     
 290                                                                      
 290 CRYSTALLOGRAPHIC SYMMETRY                                            
 290 SYMMETRY OPERATORS FOR SPACE GROUP: P 1 21 1                         
 290                                                                      
 290      SYMOP   SYMMETRY                                                
 290     NNNMMM   OPERATOR                                                
 290       1555   X,Y,Z                                                   
 290       2555   -X,Y+1/2,-Z                                             
 290                                                                      
 290     WHERE NNN -> OPERATOR NUMBER                                     
 290           MMM -> TRANSLATION VECTOR                                  
 290                                                                      
 290 CRYSTALLOGRAPHIC SYMMETRY TRANSFORMATIONS                            
 290 THE FOLLOWING TRANSFORMATIONS OPERATE ON THE ATOM/HETATM             
 290 RECORDS IN THIS ENTRY TO PRODUCE CRYSTALLOGRAPHICALLY                
 290 RELATED MOLECULES.                                                   
 290   SMTRY1   1  1.000000  0.000000  0.000000        0.00000            
 290   SMTRY2   1  0.000000  1.000000  0.000000        0.00000            
 290   SMTRY3   1  0.000000  0.000000  1.000000        0.00000            
 290   SMTRY1   2 -1.000000  0.000000  0.000000        0.00000            
 290   SMTRY2   2  0.000000  1.000000  0.000000       41.24000            
 290   SMTRY3   2  0.000000  0.000000 -1.000000        0.00000            
 290                                                                      
 290 REMARK: NULL                                                         
 300                                                                      
 300 BIOMOLECULE: 1, 2                                                    
 300 SEE REMARK 350 FOR THE AUTHOR PROVIDED AND/OR PROGRAM                
 300 GENERATED ASSEMBLY INFORMATION FOR THE STRUCTURE IN                  
 300 THIS ENTRY. THE REMARK MAY ALSO PROVIDE INFORMATION ON               
 300 BURIED SURFACE AREA.                                                 
 300 REMARK: THE BIOLOGICAL ASSEMBLY IS A DIMER. THERE ARE TWO DIMERS IN  
 300 THE ASYMMETRIC UNIT : CHAINS A AND C FORM A DIMER CHAINS B AND D     
 300 FORM A DIMER                                                         
 350                                                                      
 350 COORDINATES FOR A COMPLETE MULTIMER REPRESENTING THE KNOWN           
 350 BIOLOGICALLY SIGNIFICANT OLIGOMERIZATION STATE OF THE                
 350 MOLECULE CAN BE GENERATED BY APPLYING BIOMT TRANSFORMATIONS          
 350 GIVEN BELOW.  BOTH NON-CRYSTALLOGRAPHIC AND                          
 350 CRYSTALLOGRAPHIC OPERATIONS ARE GIVEN.                               
 350                                                                      
 350 BIOMOLECULE: 1                                                       
 350 AUTHOR DETERMINED BIOLOGICAL UNIT: DIMERIC                           
 350 SOFTWARE DETERMINED QUATERNARY STRUCTURE: DIMERIC                    
 350 SOFTWARE USED: PQS                                                   
 350 APPLY THE FOLLOWING TO CHAINS: A, C                                  
 350   BIOMT1   1  1.000000  0.000000  0.000000        0.00000            
 350   BIOMT2   1  0.000000  1.000000  0.000000        0.00000            
 350   BIOMT3   1  0.000000  0.000000  1.000000        0.00000            
 350                                                                      
 350 BIOMOLECULE: 2                                                       
 350 AUTHOR DETERMINED BIOLOGICAL UNIT: DIMERIC                           
 350 SOFTWARE DETERMINED QUATERNARY STRUCTURE: DIMERIC                    
 350 SOFTWARE USED: PQS                                                   
 350 APPLY THE FOLLOWING TO CHAINS: B, D                                  
 350   BIOMT1   1  1.000000  0.000000  0.000000        0.00000            
 350   BIOMT2   1  0.000000  1.000000  0.000000        0.00000            
 350   BIOMT3   1  0.000000  0.000000  1.000000        0.00000            
 465                                                                      
 465 MISSING RESIDUES                                                     
 465 THE FOLLOWING RESIDUES WERE NOT LOCATED IN THE                       
 465 EXPERIMENT. (M=MODEL NUMBER; RES=RESIDUE NAME; C=CHAIN               
 465 IDENTIFIER; SSSEQ=SEQUENCE NUMBER; I=INSERTION CODE.)                
 465                                                                      
 465   M RES C SSSEQI                                                     
 465     SER A    21                                                      
 465     GLY A   266                                                      
 465     GLY B   266                                                      
 465     SER C    21                                                      
 465     GLY C    94                                                      
 465     LYS C    95                                                      
 465     PRO C    96                                                      
 465     ARG C    97                                                      
 465     GLY C   266                                                      
 465     LYS D    95                                                      
 465     PRO D    96                                                      
 470                                                                      
 470 MISSING ATOM                                                         
 470 THE FOLLOWING RESIDUES HAVE MISSING ATOMS (M=MODEL NUMBER;           
 470 RES=RESIDUE NAME; C=CHAIN IDENTIFIER; SSEQ=SEQUENCE NUMBER;          
 470 I=INSERTION CODE):                                                   
 470   M RES CSSEQI  ATOMS                                                
 470     THR A  26    CB   OG1  CG2                                       
 470     LYS A  30    CG   CD   CE   NZ                                   
 470     LYS A 100    CD   CE   NZ                                        
 470     GLN A 101    CG   CD   OE1  NE2                                  
 470     GLU A 214    CG   CD   OE1  OE2                                  
 470     LYS B  30    CD   CE   NZ                                        
 470     GLN B 101    CG   CD   OE1  NE2                                  
 470     GLU B 214    CG   CD   OE1  OE2                                  
 470     LYS C  30    CG   CD   CE   NZ                                   
 470     GLU C  31    CD   OE1  OE2                                       
 470     LYS C  49    CD   CE   NZ                                        
 470     LYS C 100    CG   CD   CE   NZ                                   
 470     GLN C 101    CG   CD   OE1  NE2                                  
 470     GLU C 214    CG   CD   OE1  OE2                                  
 470     GLU C 244    CD   OE1  OE2                                       
 470     LYS D  49    CD   CE   NZ                                        
 470     ARG D  97    CG   CD   NE   CZ   NH1  NH2                        
 470     LYS D 100    CG   CD   CE   NZ                                   
 470     GLN D 101    CG   CD   OE1  NE2                                  
 470     GLU D 103    CG   CD   OE1  OE2                                  
 470     LYS D 134    CD   CE   NZ                                        
 500                                                                      
 500 GEOMETRY AND STEREOCHEMISTRY                                         
 500 SUBTOPIC: CLOSE CONTACTS IN SAME ASYMMETRIC UNIT                     
 500                                                                      
 500 THE FOLLOWING ATOMS ARE IN CLOSE CONTACT.                            
 500                                                                      
 500  ATM1  RES C  SSEQI   ATM2  RES C  SSEQI           DISTANCE          
 500   O1   EDO D  1005     O    HOH D  1009              2.04            
 500   OG1  THR B   206     O1   SO4 B   908              2.13            
 500                                                                      
 500 REMARK: NULL                                                         
 500                                                                      
 500 GEOMETRY AND STEREOCHEMISTRY                                         
 500 SUBTOPIC: COVALENT BOND ANGLES                                       
 500                                                                      
 500 THE STEREOCHEMICAL PARAMETERS OF THE FOLLOWING RESIDUES              
 500 HAVE VALUES WHICH DEVIATE FROM EXPECTED VALUES BY MORE               
 500 THAN 6*RMSD (M=MODEL NUMBER; RES=RESIDUE NAME; C=CHAIN               
 500 IDENTIFIER; SSEQ=SEQUENCE NUMBER; I=INSERTION CODE).                 
 500                                                                      
 500 STANDARD TABLE:                                                      
 500 FORMAT: (10X,I3,1X,A3,1X,A1,I4,A1,3(1X,A4,2X),12X,F5.1)              
 500                                                                      
 500 EXPECTED VALUES PROTEIN: ENGH AND HUBER, 1999                        
 500 EXPECTED VALUES NUCLEIC ACID: CLOWNEY ET AL 1996                     
 500                                                                      
 500  M RES CSSEQI ATM1   ATM2   ATM3                                     
 500    ASP A 105   CB  -  CG  -  OD2 ANGL. DEV. =   6.3 DEGREES          
 500    ASP A 242   CB  -  CG  -  OD2 ANGL. DEV. =   6.2 DEGREES          
 500    ASP B  55   CB  -  CG  -  OD2 ANGL. DEV. =   5.4 DEGREES          
 500    ASP B 105   CB  -  CG  -  OD2 ANGL. DEV. =   5.7 DEGREES          
 500    ASP B 242   CB  -  CG  -  OD2 ANGL. DEV. =   5.8 DEGREES          
 500    ASP C  55   CB  -  CG  -  OD2 ANGL. DEV. =   6.6 DEGREES          
 500                                                                      
 500 REMARK: NULL                                                         
 500                                                                      
 500 GEOMETRY AND STEREOCHEMISTRY                                         
 500 SUBTOPIC: TORSION ANGLES                                             
 500                                                                      
 500 TORSION ANGLES OUTSIDE THE EXPECTED RAMACHANDRAN REGIONS:            
 500 (M=MODEL NUMBER; RES=RESIDUE NAME; C=CHAIN IDENTIFIER;               
 500 SSEQ=SEQUENCE NUMBER; I=INSERTION CODE).                             
 500                                                                      
 500 STANDARD TABLE:                                                      
 500 FORMAT:(10X,I3,1X,A3,1X,A1,I4,A1,4X,F7.2,3X,F7.2)                    
 500                                                                      
 500 EXPECTED VALUES: GJ KLEYWEGT AND TA JONES (1996). PHI/PSI-           
 500 CHOLOGY: RAMACHANDRAN REVISITED. STRUCTURE 4, 1395 - 1400            
 500                                                                      
 500  M RES CSSEQI        PSI       PHI                                   
 500    SER A  46      -50.33     76.80                                   
 500    ALA A  66     -154.10     51.26                                   
 500    SER A  67      -25.00    -32.56                                   
 500    GLU A 229     -124.11     53.63                                   
 500    SER B  46      -46.83     76.01                                   
 500    ALA B  66     -152.17     50.45                                   
 500    SER B  67      -27.55    -35.76                                   
 500    GLU B 229     -123.38     54.00                                   
 500    SER C  46      -47.96     76.76                                   
 500    ALA C  66     -137.80     50.39                                   
 500    ALA C 116       58.82   -152.30                                   
 500    LYS C 152       10.97   -156.33                                   
 500    GLU C 229     -122.68     55.25                                   
 500    SER D  46      -49.08     75.82                                   
 500    ALA D  66     -140.25     52.36                                   
 500    ASP D  93      -86.89    -83.63                                   
 500    ALA D 116       56.91   -155.75                                   
 500    LYS D 152       11.81   -154.80                                   
 500    GLU D 229     -122.23     53.55                                   
 500                                                                      
 500 REMARK: NULL                                                         
 800                                                                      
 800 SITE                                                                 
 800 SITE_IDENTIFIER: AC1                                                 
 800 EVIDENCE_CODE: SOFTWARE                                              
 800 SITE_DESCRIPTION: BINDING SITE FOR RESIDUE SO4 C 901                 
 800                                                                      
 800 SITE_IDENTIFIER: AC2                                                 
 800 EVIDENCE_CODE: SOFTWARE                                              
 800 SITE_DESCRIPTION: BINDING SITE FOR RESIDUE SO4 C 902                 
 800                                                                      
 800 SITE_IDENTIFIER: AC3                                                 
 800 EVIDENCE_CODE: SOFTWARE                                              
 800 SITE_DESCRIPTION: BINDING SITE FOR RESIDUE SO4 A 903                 
 800                                                                      
 800 SITE_IDENTIFIER: AC4                                                 
 800 EVIDENCE_CODE: SOFTWARE                                              
 800 SITE_DESCRIPTION: BINDING SITE FOR RESIDUE SO4 C 904                 
 800                                                                      
 800 SITE_IDENTIFIER: AC5                                                 
 800 EVIDENCE_CODE: SOFTWARE                                              
 800 SITE_DESCRIPTION: BINDING SITE FOR RESIDUE SO4 A 905                 
 800                                                                      
 800 SITE_IDENTIFIER: AC6                                                 
 800 EVIDENCE_CODE: SOFTWARE                                              
 800 SITE_DESCRIPTION: BINDING SITE FOR RESIDUE SO4 A 906                 
 800                                                                      
 800 SITE_IDENTIFIER: AC7                                                 
 800 EVIDENCE_CODE: SOFTWARE                                              
 800 SITE_DESCRIPTION: BINDING SITE FOR RESIDUE SO4 C 907                 
 800                                                                      
 800 SITE_IDENTIFIER: AC8                                                 
 800 EVIDENCE_CODE: SOFTWARE                                              
 800 SITE_DESCRIPTION: BINDING SITE FOR RESIDUE SO4 B 908                 
 800                                                                      
 800 SITE_IDENTIFIER: AC9                                                 
 800 EVIDENCE_CODE: SOFTWARE                                              
 800 SITE_DESCRIPTION: BINDING SITE FOR RESIDUE SO4 B 909                 
 800                                                                      
 800 SITE_IDENTIFIER: BC1                                                 
 800 EVIDENCE_CODE: SOFTWARE                                              
 800 SITE_DESCRIPTION: BINDING SITE FOR RESIDUE SO4 D 910                 
 800                                                                      
 800 SITE_IDENTIFIER: BC2                                                 
 800 EVIDENCE_CODE: SOFTWARE                                              
 800 SITE_DESCRIPTION: BINDING SITE FOR RESIDUE SO4 D 911                 
 800                                                                      
 800 SITE_IDENTIFIER: BC3                                                 
 800 EVIDENCE_CODE: SOFTWARE                                              
 800 SITE_DESCRIPTION: BINDING SITE FOR RESIDUE SO4 B 912                 
 800                                                                      
 800 SITE_IDENTIFIER: BC4                                                 
 800 EVIDENCE_CODE: SOFTWARE                                              
 800 SITE_DESCRIPTION: BINDING SITE FOR RESIDUE SO4 B 913                 
 800                                                                      
 800 SITE_IDENTIFIER: BC5                                                 
 800 EVIDENCE_CODE: SOFTWARE                                              
 800 SITE_DESCRIPTION: BINDING SITE FOR RESIDUE SO4 A 914                 
 800                                                                      
 800 SITE_IDENTIFIER: BC6                                                 
 800 EVIDENCE_CODE: SOFTWARE                                              
 800 SITE_DESCRIPTION: BINDING SITE FOR RESIDUE SO4 B 915                 
 800                                                                      
 800 SITE_IDENTIFIER: BC7                                                 
 800 EVIDENCE_CODE: SOFTWARE                                              
 800 SITE_DESCRIPTION: BINDING SITE FOR RESIDUE SO4 D 916                 
 800                                                                      
 800 SITE_IDENTIFIER: BC8                                                 
 800 EVIDENCE_CODE: SOFTWARE                                              
 800 SITE_DESCRIPTION: BINDING SITE FOR RESIDUE SO4 D 917                 
 800                                                                      
 800 SITE_IDENTIFIER: BC9                                                 
 800 EVIDENCE_CODE: SOFTWARE                                              
 800 SITE_DESCRIPTION: BINDING SITE FOR RESIDUE HOQ A 967                 
 800                                                                      
 800 SITE_IDENTIFIER: CC1                                                 
 800 EVIDENCE_CODE: SOFTWARE                                              
 800 SITE_DESCRIPTION: BINDING SITE FOR RESIDUE HOQ B 967                 
 800                                                                      
 800 SITE_IDENTIFIER: CC2                                                 
 800 EVIDENCE_CODE: SOFTWARE                                              
 800 SITE_DESCRIPTION: BINDING SITE FOR RESIDUE EDO A 1001                
 800                                                                      
 800 SITE_IDENTIFIER: CC3                                                 
 800 EVIDENCE_CODE: SOFTWARE                                              
 800 SITE_DESCRIPTION: BINDING SITE FOR RESIDUE EDO A 1002                
 800                                                                      
 800 SITE_IDENTIFIER: CC4                                                 
 800 EVIDENCE_CODE: SOFTWARE                                              
 800 SITE_DESCRIPTION: BINDING SITE FOR RESIDUE EDO B 1003                
 800                                                                      
 800 SITE_IDENTIFIER: CC5                                                 
 800 EVIDENCE_CODE: SOFTWARE                                              
 800 SITE_DESCRIPTION: BINDING SITE FOR RESIDUE EDO B 1004                
 800                                                                      
 800 SITE_IDENTIFIER: CC6                                                 
 800 EVIDENCE_CODE: SOFTWARE                                              
 800 SITE_DESCRIPTION: BINDING SITE FOR RESIDUE EDO D 1005                
 900                                                                      
 900 RELATED ENTRIES                                                      
 900 RELATED ID: 1E4D   RELATED DB: PDB                                   
 900 STRUCTURE OF OXA 10 BETA-LACTAMASE AT PH 8.3                         
 900 RELATED ID: 1E3U   RELATED DB: PDB                                   
 900 MAD STRUCTURE OF OXA10 CLASS D BETA-LACTAMASE                        
 900 RELATED ID: 1K55   RELATED DB: PDB                                   
 900 OXA 10 CLASS D BETA-LACTAMASE AT PH 7.5                              
 900 RELATED ID: 1K56   RELATED DB: PDB                                   
 900 OXA 10 CLASS D BETA-LACTAMASE AT PH 6.5                              
 900 RELATED ID: 1K57   RELATED DB: PDB                                   
 900 OXA 10 CLASS D BETA-LACTAMASE AT PH 6.0                              

>  <DBREF>
 1K54 A   21   266  UNP    P14489   BLP2_PSEAE      21    266             
 1K54 B   21   266  UNP    P14489   BLP2_PSEAE      21    266             
 1K54 C   21   266  UNP    P14489   BLP2_PSEAE      21    266             
 1K54 D   21   266  UNP    P14489   BLP2_PSEAE      21    266             

>  <SEQADV>
 1K54 KCX A   70  UNP  P14489    LYS    70 MODIFIED RESIDUE               
 1K54 KCX B   70  UNP  P14489    LYS    70 MODIFIED RESIDUE               

>  <SEQRES>
   1 A  246  SER ILE THR GLU ASN THR SER TRP ASN LYS GLU PHE SER          
   2 A  246  ALA GLU ALA VAL ASN GLY VAL PHE VAL LEU CYS LYS SER          
   3 A  246  SER SER LYS SER CYS ALA THR ASN ASP LEU ALA ARG ALA          
   4 A  246  SER LYS GLU TYR LEU PRO ALA SER THR PHE KCX ILE PRO          
   5 A  246  ASN ALA ILE ILE GLY LEU GLU THR GLY VAL ILE LYS ASN          
   6 A  246  GLU HIS GLN VAL PHE LYS TRP ASP GLY LYS PRO ARG ALA          
   7 A  246  MET LYS GLN TRP GLU ARG ASP LEU THR LEU ARG GLY ALA          
   8 A  246  ILE GLN VAL SER ALA VAL PRO VAL PHE GLN GLN ILE ALA          
   9 A  246  ARG GLU VAL GLY GLU VAL ARG MET GLN LYS TYR LEU LYS          
  10 A  246  LYS PHE SER TYR GLY ASN GLN ASN ILE SER GLY GLY ILE          
  11 A  246  ASP LYS PHE TRP LEU GLU GLY GLN LEU ARG ILE SER ALA          
  12 A  246  VAL ASN GLN VAL GLU PHE LEU GLU SER LEU TYR LEU ASN          
  13 A  246  LYS LEU SER ALA SER LYS GLU ASN GLN LEU ILE VAL LYS          
  14 A  246  GLU ALA LEU VAL THR GLU ALA ALA PRO GLU TYR LEU VAL          
  15 A  246  HIS SER LYS THR GLY PHE SER GLY VAL GLY THR GLU SER          
  16 A  246  ASN PRO GLY VAL ALA TRP TRP VAL GLY TRP VAL GLU LYS          
  17 A  246  GLU THR GLU VAL TYR PHE PHE ALA PHE ASN MET ASP ILE          
  18 A  246  ASP ASN GLU SER LYS LEU PRO LEU ARG LYS SER ILE PRO          
  19 A  246  THR LYS ILE MET GLU SER GLU GLY ILE ILE GLY GLY              
   1 B  246  SER ILE THR GLU ASN THR SER TRP ASN LYS GLU PHE SER          
   2 B  246  ALA GLU ALA VAL ASN GLY VAL PHE VAL LEU CYS LYS SER          
   3 B  246  SER SER LYS SER CYS ALA THR ASN ASP LEU ALA ARG ALA          
   4 B  246  SER LYS GLU TYR LEU PRO ALA SER THR PHE KCX ILE PRO          
   5 B  246  ASN ALA ILE ILE GLY LEU GLU THR GLY VAL ILE LYS ASN          
   6 B  246  GLU HIS GLN VAL PHE LYS TRP ASP GLY LYS PRO ARG ALA          
   7 B  246  MET LYS GLN TRP GLU ARG ASP LEU THR LEU ARG GLY ALA          
   8 B  246  ILE GLN VAL SER ALA VAL PRO VAL PHE GLN GLN ILE ALA          
   9 B  246  ARG GLU VAL GLY GLU VAL ARG MET GLN LYS TYR LEU LYS          
  10 B  246  LYS PHE SER TYR GLY ASN GLN ASN ILE SER GLY GLY ILE          
  11 B  246  ASP LYS PHE TRP LEU GLU GLY GLN LEU ARG ILE SER ALA          
  12 B  246  VAL ASN GLN VAL GLU PHE LEU GLU SER LEU TYR LEU ASN          
  13 B  246  LYS LEU SER ALA SER LYS GLU ASN GLN LEU ILE VAL LYS          
  14 B  246  GLU ALA LEU VAL THR GLU ALA ALA PRO GLU TYR LEU VAL          
  15 B  246  HIS SER LYS THR GLY PHE SER GLY VAL GLY THR GLU SER          
  16 B  246  ASN PRO GLY VAL ALA TRP TRP VAL GLY TRP VAL GLU LYS          
  17 B  246  GLU THR GLU VAL TYR PHE PHE ALA PHE ASN MET ASP ILE          
  18 B  246  ASP ASN GLU SER LYS LEU PRO LEU ARG LYS SER ILE PRO          
  19 B  246  THR LYS ILE MET GLU SER GLU GLY ILE ILE GLY GLY              
   1 C  246  SER ILE THR GLU ASN THR SER TRP ASN LYS GLU PHE SER          
   2 C  246  ALA GLU ALA VAL ASN GLY VAL PHE VAL LEU CYS LYS SER          
   3 C  246  SER SER LYS SER CYS ALA THR ASN ASP LEU ALA ARG ALA          
   4 C  246  SER LYS GLU TYR LEU PRO ALA SER THR PHE LYS ILE PRO          
   5 C  246  ASN ALA ILE ILE GLY LEU GLU THR GLY VAL ILE LYS ASN          
   6 C  246  GLU HIS GLN VAL PHE LYS TRP ASP GLY LYS PRO ARG ALA          
   7 C  246  MET LYS GLN TRP GLU ARG ASP LEU THR LEU ARG GLY ALA          
   8 C  246  ILE GLN VAL SER ALA VAL PRO VAL PHE GLN GLN ILE ALA          
   9 C  246  ARG GLU VAL GLY GLU VAL ARG MET GLN LYS TYR LEU LYS          
  10 C  246  LYS PHE SER TYR GLY ASN GLN ASN ILE SER GLY GLY ILE          
  11 C  246  ASP LYS PHE TRP LEU GLU GLY GLN LEU ARG ILE SER ALA          
  12 C  246  VAL ASN GLN VAL GLU PHE LEU GLU SER LEU TYR LEU ASN          
  13 C  246  LYS LEU SER ALA SER LYS GLU ASN GLN LEU ILE VAL LYS          
  14 C  246  GLU ALA LEU VAL THR GLU ALA ALA PRO GLU TYR LEU VAL          
  15 C  246  HIS SER LYS THR GLY PHE SER GLY VAL GLY THR GLU SER          
  16 C  246  ASN PRO GLY VAL ALA TRP TRP VAL GLY TRP VAL GLU LYS          
  17 C  246  GLU THR GLU VAL TYR PHE PHE ALA PHE ASN MET ASP ILE          
  18 C  246  ASP ASN GLU SER LYS LEU PRO LEU ARG LYS SER ILE PRO          
  19 C  246  THR LYS ILE MET GLU SER GLU GLY ILE ILE GLY GLY              
   1 D  246  SER ILE THR GLU ASN THR SER TRP ASN LYS GLU PHE SER          
   2 D  246  ALA GLU ALA VAL ASN GLY VAL PHE VAL LEU CYS LYS SER          
   3 D  246  SER SER LYS SER CYS ALA THR ASN ASP LEU ALA ARG ALA          
   4 D  246  SER LYS GLU TYR LEU PRO ALA SER THR PHE LYS ILE PRO          
   5 D  246  ASN ALA ILE ILE GLY LEU GLU THR GLY VAL ILE LYS ASN          
   6 D  246  GLU HIS GLN VAL PHE LYS TRP ASP GLY LYS PRO ARG ALA          
   7 D  246  MET LYS GLN TRP GLU ARG ASP LEU THR LEU ARG GLY ALA          
   8 D  246  ILE GLN VAL SER ALA VAL PRO VAL PHE GLN GLN ILE ALA          
   9 D  246  ARG GLU VAL GLY GLU VAL ARG MET GLN LYS TYR LEU LYS          
  10 D  246  LYS PHE SER TYR GLY ASN GLN ASN ILE SER GLY GLY ILE          
  11 D  246  ASP LYS PHE TRP LEU GLU GLY GLN LEU ARG ILE SER ALA          
  12 D  246  VAL ASN GLN VAL GLU PHE LEU GLU SER LEU TYR LEU ASN          
  13 D  246  LYS LEU SER ALA SER LYS GLU ASN GLN LEU ILE VAL LYS          
  14 D  246  GLU ALA LEU VAL THR GLU ALA ALA PRO GLU TYR LEU VAL          
  15 D  246  HIS SER LYS THR GLY PHE SER GLY VAL GLY THR GLU SER          
  16 D  246  ASN PRO GLY VAL ALA TRP TRP VAL GLY TRP VAL GLU LYS          
  17 D  246  GLU THR GLU VAL TYR PHE PHE ALA PHE ASN MET ASP ILE          
  18 D  246  ASP ASN GLU SER LYS LEU PRO LEU ARG LYS SER ILE PRO          
  19 D  246  THR LYS ILE MET GLU SER GLU GLY ILE ILE GLY GLY              

>  <MODRES>
 1K54 KCX A   70  LYS  LYSINE NZ-CARBOXYLIC ACID                          
 1K54 KCX B   70  LYS  LYSINE NZ-CARBOXYLIC ACID                          

>  <HET>
 KCX  A  70      12                                                       
 KCX  B  70      12                                                       
 SO4  A 903       5                                                       
 SO4  A 905       5                                                       
 SO4  A 906       5                                                       
 SO4  A 914       5                                                       
 HOQ  A 967      17                                                       
 EDO  A1001       4                                                       
 EDO  A1002       4                                                       
 SO4  B 908       5                                                       
 SO4  B 909       5                                                       
 SO4  B 912       5                                                       
 SO4  B 913       5                                                       
 SO4  B 915       5                                                       
 HOQ  B 967      17                                                       
 EDO  B1003       4                                                       
 EDO  B1004       4                                                       
 SO4  C 901      10                                                       
 SO4  C 902       5                                                       
 SO4  C 904       5                                                       
 SO4  C 907       5                                                       
 SO4  D 910       5                                                       
 SO4  D 911       5                                                       
 SO4  D 916       5                                                       
 SO4  D 917       5                                                       
 EDO  D1005       4                                                       
 EDO  D1006       4                                                       

>  <HETNAM>
     KCX LYSINE NZ-CARBOXYLIC ACID                                        
     SO4 SULFATE ION                                                      
     HOQ (1R)-2-(1-CARBOXY-2-HYDROXY-2-METHYL-PROPYL)-5,5-                
   2 HOQ  DIMETHYL-THIAZOLIDINE-4-CARBOXYLIC ACID                         
     EDO 1,2-ETHANEDIOL                                                   

>  <HETSYN>
     EDO ETHYLENE GLYCOL                                                  

>  <FORMUL>
   1  KCX    2(C7 H14 N2 O4)                                              
   5  SO4    17(O4 S 2-)                                                  
   9  HOQ    2(C11 H19 N O5 S)                                            
  10  EDO    6(C2 H6 O2)                                                  
  30  HOH   *821(H2 O)                                                    

>  <HELIX>
   1   1 THR A   26  TRP A   28  5                                   3    
   2   2 ASN A   29  ALA A   34  1                                   6    
   3   3 ASP A   55  SER A   60  1                                   6    
   4   4 PRO A   65  THR A   68  5                                   4    
   5   5 PHE A   69  THR A   80  1                                  12    
   6   6 MET A   99  GLU A  103  5                                   5    
   7   7 LEU A  108  VAL A  114  1                                   7    
   8   8 ALA A  116  GLY A  128  1                                  13    
   9   9 GLY A  128  PHE A  139  1                                  12    
  10  10 ALA A  163  LEU A  175  1                                  13    
  11  11 SER A  181  LEU A  192  1                                  12    
  12  12 ASN A  243  LEU A  247  5                                   5    
  13  13 PRO A  248  GLU A  261  1                                  14    
  14  14 THR B   26  TRP B   28  5                                   3    
  15  15 ASN B   29  ALA B   34  1                                   6    
  16  16 ASP B   55  SER B   60  1                                   6    
  17  17 PRO B   65  THR B   68  5                                   4    
  18  18 PHE B   69  THR B   80  1                                  12    
  19  19 MET B   99  GLU B  103  5                                   5    
  20  20 LEU B  108  VAL B  114  1                                   7    
  21  21 ALA B  116  GLY B  128  1                                  13    
  22  22 GLY B  128  PHE B  139  1                                  12    
  23  23 ALA B  163  LEU B  175  1                                  13    
  24  24 SER B  181  LEU B  192  1                                  12    
  25  25 ASN B  243  LEU B  247  5                                   5    
  26  26 PRO B  248  GLU B  261  1                                  14    
  27  27 THR C   26  TRP C   28  5                                   3    
  28  28 ASN C   29  ALA C   34  1                                   6    
  29  29 ASP C   55  LYS C   61  1                                   7    
  30  30 PRO C   65  THR C   68  5                                   4    
  31  31 PHE C   69  THR C   80  1                                  12    
  32  32 MET C   99  ARG C  104  5                                   6    
  33  33 LEU C  108  VAL C  114  1                                   7    
  34  34 ALA C  116  GLY C  128  1                                  13    
  35  35 GLY C  128  PHE C  139  1                                  12    
  36  36 SER C  162  ASN C  176  1                                  15    
  37  37 SER C  181  LEU C  192  1                                  12    
  38  38 ASN C  243  LEU C  247  5                                   5    
  39  39 PRO C  248  GLU C  261  1                                  14    
  40  40 THR D   26  TRP D   28  5                                   3    
  41  41 ASN D   29  ALA D   36  1                                   8    
  42  42 ASP D   55  SER D   60  1                                   6    
  43  43 PRO D   65  THR D   68  5                                   4    
  44  44 PHE D   69  THR D   80  1                                  12    
  45  45 MET D   99  ARG D  104  5                                   6    
  46  46 LEU D  108  VAL D  114  1                                   7    
  47  47 ALA D  116  GLY D  128  1                                  13    
  48  48 GLY D  128  PHE D  139  1                                  12    
  49  49 ALA D  163  LEU D  175  1                                  13    
  50  50 SER D  181  LEU D  192  1                                  12    
  51  51 ASN D  243  LEU D  247  5                                   5    
  52  52 PRO D  248  GLU D  261  1                                  14    

>  <SHEET>
   1   A 7 THR A  23  GLU A  24  0                                        
   2   A 7 CYS A  51  THR A  53  1  O  THR A  53   N  THR A  23           
   3   A 7 GLY A  39  LYS A  45 -1  N  LEU A  43   O  ALA A  52           
   4   A 7 GLU A 231  ILE A 241 -1  O  PHE A 234   N  CYS A  44           
   5   A 7 GLY A 218  LYS A 228 -1  N  VAL A 226   O  TYR A 233           
   6   A 7 TYR A 200  PHE A 208 -1  N  LEU A 201   O  GLU A 227           
   7   A 7 VAL A 193  ALA A 197 -1  N  GLU A 195   O  VAL A 202           
   1   B 2 GLU A  62  TYR A  63  0                                        
   2   B 2 ILE A 161  SER A 162 -1  O  ILE A 161   N  TYR A  63           
   1   C 2 VAL A  89  PHE A  90  0                                        
   2   C 2 LEU A 106  THR A 107 -1  O  LEU A 106   N  PHE A  90           
   1   D 7 ILE B  22  GLU B  24  0                                        
   2   D 7 CYS B  51  THR B  53  1  O  CYS B  51   N  THR B  23           
   3   D 7 GLY B  39  LYS B  45 -1  N  LEU B  43   O  ALA B  52           
   4   D 7 GLU B 231  ILE B 241 -1  O  PHE B 234   N  CYS B  44           
   5   D 7 GLY B 218  LYS B 228 -1  N  GLY B 224   O  PHE B 235           
   6   D 7 TYR B 200  PHE B 208 -1  N  LEU B 201   O  GLU B 227           
   7   D 7 VAL B 193  ALA B 197 -1  N  GLU B 195   O  VAL B 202           
   1   E 2 GLU B  62  TYR B  63  0                                        
   2   E 2 ILE B 161  SER B 162 -1  O  ILE B 161   N  TYR B  63           
   1   F 2 VAL B  89  PHE B  90  0                                        
   2   F 2 LEU B 106  THR B 107 -1  O  LEU B 106   N  PHE B  90           
   1   G 7 THR C  23  GLU C  24  0                                        
   2   G 7 CYS C  51  THR C  53  1  O  CYS C  51   N  THR C  23           
   3   G 7 GLY C  39  LYS C  45 -1  N  LEU C  43   O  ALA C  52           
   4   G 7 GLU C 231  ILE C 241 -1  O  ASN C 238   N  VAL C  40           
   5   G 7 GLY C 218  LYS C 228 -1  N  LYS C 228   O  GLU C 231           
   6   G 7 TYR C 200  PHE C 208 -1  N  LEU C 201   O  GLU C 227           
   7   G 7 VAL C 193  ALA C 197 -1  N  GLU C 195   O  VAL C 202           
   1   H 2 VAL C  89  PHE C  90  0                                        
   2   H 2 LEU C 106  THR C 107 -1  O  LEU C 106   N  PHE C  90           
   1   I 7 ILE D  22  GLU D  24  0                                        
   2   I 7 CYS D  51  THR D  53  1  O  CYS D  51   N  THR D  23           
   3   I 7 GLY D  39  LYS D  45 -1  N  LEU D  43   O  ALA D  52           
   4   I 7 GLU D 231  ILE D 241 -1  O  ASN D 238   N  VAL D  40           
   5   I 7 GLY D 218  LYS D 228 -1  N  GLY D 224   O  PHE D 235           
   6   I 7 TYR D 200  PHE D 208 -1  N  LEU D 201   O  GLU D 227           
   7   I 7 VAL D 193  ALA D 197 -1  N  GLU D 195   O  VAL D 202           
   1   J 2 GLU D  62  TYR D  63  0                                        
   2   J 2 ILE D 161  SER D 162 -1  O  ILE D 161   N  TYR D  63           
   1   K 2 VAL D  89  PHE D  90  0                                        
   2   K 2 LEU D 106  THR D 107 -1  O  LEU D 106   N  PHE D  90           

>  <SSBOND>
   1 CYS A   44    CYS A   51                          1555   1555  2.04  
   2 CYS B   44    CYS B   51                          1555   1555  2.04  
   3 CYS C   44    CYS C   51                          1555   1555  2.04  
   4 CYS D   44    CYS D   51                          1555   1555  2.04  

>  <LINK>
       OG  SER A  67                 C1  HOQ A 967     1555   1555  1.39  
       C   PHE A  69                 N   KCX A  70     1555   1555  1.33  
       C   KCX A  70                 N   ILE A  71     1555   1555  1.33  
       OG1 THR A 206                 O2  SO4 A 905     1555   1555  2.03  
       OG  SER B  67                 C1  HOQ B 967     1555   1555  1.39  
       C   PHE B  69                 N   KCX B  70     1555   1555  1.33  
       C   KCX B  70                 N   ILE B  71     1555   1555  1.33  

>  <SITE>
   1 AC1  8 LYS B  95  SER C  67  THR C 206  GLY C 207                    
   2 AC1  8 PHE C 208  ARG C 250  SO4 C 902  HOH C 926                    
   1 AC2  7 SER C  67  LYS C  70  SER C 115  ALA C 116                    
   2 AC2  7 VAL C 117  SO4 C 901  HOH C 926                               
   1 AC3  5 THR A 206  ARG A 250  LYS A 251  SO4 A 905                    
   2 AC3  5 HOH A1018                                                     
   1 AC4  2 LYS C  61  HOH C 936                                          
   1 AC5  9 SER A  67  SER A 115  LYS A 205  THR A 206                    
   2 AC5  9 GLY A 207  PHE A 208  ARG A 250  SO4 A 903                    
   3 AC5  9 HOQ A 967                                                     
   1 AC6  3 MET A  99  LYS A 100  GLN A 101                               
   1 AC7  4 LYS B 152  THR C 213  ASN C 216  HOH C 965                    
   1 AC8 10 SER B  67  SER B 115  LYS B 205  THR B 206                    
   2 AC8 10 GLY B 207  PHE B 208  ARG B 250  SO4 B 909                    
   3 AC8 10 HOQ B 967  HOH B1082                                          
   1 AC9  6 THR B 206  ARG B 250  LYS B 251  SO4 B 908                    
   2 AC9  6 HOH B1082  HOH B1233                                          
   1 BC1  5 ARG D 250  LYS D 251  HOH D1091  HOH D1125                    
   2 BC1  5 HOH D1242                                                     
   1 BC2  7 SER D  67  LYS D  70  SER D 115  ALA D 116                    
   2 BC2  7 VAL D 117  HOH D1118  HOH D1197                               
   1 BC3  4 MET B  99  LYS B 100  GLN B 101  HOH B1232                    
   1 BC4  5 THR B  80  ARG B 131  LYS B 134  TYR B 135                    
   2 BC4  5 HOH B1118                                                     
   1 BC5  3 ARG A 131  LYS A 134  TYR A 135                               
   1 BC6  1 ARG B 160                                                     
   1 BC7  4 HOH B1192  SER D 181  LYS D 182  HOH D1065                    
   1 BC8  6 LYS A  95  THR D 206  GLY D 207  PHE D 208                    
   2 BC8  6 ARG D 250  HOH D1152                                          
   1 BC9 12 ALA A  66  SER A  67  KCX A  70  MET A  99                    
   2 BC9 12 TRP A 102  VAL A 117  LEU A 155  GLY A 207                    
   3 BC9 12 PHE A 208  SO4 A 905  HOH A1131  HOH A1140                    
   1 CC1 10 ALA B  66  SER B  67  KCX B  70  MET B  99                    
   2 CC1 10 TRP B 102  VAL B 117  GLY B 207  PHE B 208                    
   3 CC1 10 SO4 B 908  HOH B1120                                          
   1 CC2  8 THR A 107  ARG A 109  HOH A1004  HOH A1052                    
   2 CC2  8 HOH A1110  GLU C 199  GLU C 227  GLU C 229                    
   1 CC3  7 GLU A 199  GLU A 227  GLU A 229  HOH A1057                    
   2 CC3  7 HOH A1113  THR C 107  ARG C 109                               
   1 CC4  5 GLU B 199  GLU B 229  HOH B1020  HOH B1078                    
   2 CC4  5 THR D 107                                                     
   1 CC5  6 ASN B  38  ASP B 240  ASP B 242  HOH B1015                    
   2 CC5  6 HOH B1022  HOH B1129                                          
   1 CC6  4 THR B 107  GLU D 199  GLU D 229  HOH D1009                    

>  <ORIGX1>
      1.000000  0.000000  0.000000        0.00000                         

>  <ORIGX2>
      0.000000  1.000000  0.000000        0.00000                         

>  <ORIGX3>
      0.000000  0.000000  1.000000        0.00000                         

>  <SCALE1>
      0.015004  0.000000  0.001413        0.00000                         

>  <SCALE2>
      0.000000  0.012124  0.000000        0.00000                         

>  <SCALE3>
      0.000000  0.000000  0.009851        0.00000                         

>  <ANISOU>
  334  N   SER A  67     1977   2005   1941    -47     -6    -42       N  
  335  CA  SER A  67     1999   2005   1943    -40      2    -13       C  
  336  C   SER A  67     1862   1912   1871    -47    -19     -2       C  
  337  O   SER A  67     1792   1919   1766    -87    -15    -17       O  
  338  CB  SER A  67     2028   2097   2082    -47     -9    -19       C  
  339  OG  SER A  67     2431   2440   2194    -94     -7    -39       O  
 7689  C1  HOQ A 967     2809   2802   2932     54     16     54       C  
 7690  O1  HOQ A 967     2513   2642   2745    -75      0     26       O  
 7691  C2  HOQ A 967     3347   3399   3225     -9      8    -67       C  
 7692  C21 HOQ A 967     3352   3344   3299     -2      7    -11       C  
 7693  O22 HOQ A 967     3334   3393   3413    -55     11    -25       O  
 7694  C3  HOQ A 967     3785   3609   3769      9    -26      3       C  
 7695  S4  HOQ A 967     4032   4032   4074    -62     34     14       S  
 7696  C5  HOQ A 967     4101   4089   4095    -10    -10     -7       C  
 7697  C51 HOQ A 967     4117   4124   4174      0    -13      4       C  
 7698  C52 HOQ A 967     4148   4100   4163     -9    -16     13       C  
 7699  C6  HOQ A 967     4049   4089   4114    -14    -20      4       C  
 7700  C8  HOQ A 967     4228   4206   4214      1    -23    -41       C  
 7701  O81 HOQ A 967     4261   4236   4281     13    -50    -11       O  
 7702  O82 HOQ A 967     4305   4286   4356     42    -13    -45       O  
 7703  N7  HOQ A 967     3985   3932   3887      0     -1    -52       N  
 7704  C9  HOQ A 967     3363   3341   3276     11    -10     -6       C  
 7705  C10 HOQ A 967     3307   3316   3261    -22     21     15       C  

>  <MASTER>
      483    0   27   52   42    0   44    6 8578    4  187   76          

$$$$
