start_structures/Ligand_Substrate/Ligand_Complex_Stripped/IAP_1S6R.pdb
 OpenBabel08222315203D

 20 20  0  0  1  0  0  0  0  0999 V2000
   13.2320   24.0660   24.1370 N   0  0  0  0  0  0  0  0  0  0  0  0
   12.4530   24.1680   25.3700 C   0  0  2  0  0  0  0  0  0  0  0  0
   11.2890   23.1890   25.3460 C   0  0  0  0  0  0  0  0  0  0  0  0
   10.4160   23.2330   26.2100 O   0  0  0  0  0  0  0  0  0  0  0  0
   11.9490   25.5920   25.5950 C   0  0  0  0  0  0  0  0  0  0  0  0
   12.9770   26.5430   25.3820 O   0  0  0  0  0  0  0  0  0  0  0  0
   13.2590   27.1440   24.0860 B   0  0  0  0  0  0  0  0  0  0  0  0
   12.0670   27.9410   23.8830 O   0  0  0  0  0  0  0  0  0  0  0  0
   13.6920   26.6080   22.8110 O   0  0  0  0  0  0  0  0  0  0  0  0
   14.4180   28.0600   24.7230 C   0  0  0  0  0  0  0  0  0  0  0  0
   14.0670   29.1120   25.5770 C   0  0  0  0  0  0  0  0  0  0  0  0
   15.0670   29.9060   26.1370 C   0  0  0  0  0  0  0  0  0  0  0  0
   16.4000   29.6590   25.8070 C   0  0  0  0  0  0  0  0  0  0  0  0
   16.7910   28.6040   24.9720 C   0  0  0  0  0  0  0  0  0  0  0  0
   15.7600   27.7980   24.4300 C   0  0  0  0  0  0  0  0  0  0  0  0
   18.1200   28.4620   24.7610 N   0  0  0  0  0  0  0  0  0  0  0  0
   19.1630   29.1620   25.2640 C   0  0  0  0  0  0  0  0  0  0  0  0
   19.1500   30.1380   26.0090 O   0  0  0  0  0  0  0  0  0  0  0  0
   20.4850   28.6360   24.7360 C   0  0  0  0  0  0  0  0  0  0  0  0
   20.3910   28.1570   22.6700 I   0  0  0  0  0  0  0  0  0  0  0  0
  2  1  1  6  0  0  0
  2  5  1  0  0  0  0
  3  2  1  0  0  0  0
  3  4  2  0  0  0  0
  6  7  1  0  0  0  0
  6  5  1  0  0  0  0
  7  8  1  0  0  0  0
  7  9  1  0  0  0  0
  7 10  1  0  0  0  0
 10 11  2  0  0  0  0
 10 15  1  0  0  0  0
 11 12  1  0  0  0  0
 12 13  2  0  0  0  0
 13 14  1  0  0  0  0
 14 15  2  0  0  0  0
 14 16  1  0  0  0  0
 16 17  1  0  0  0  0
 17 18  2  0  0  0  0
 17 19  1  0  0  0  0
 19 20  1  0  0  0  0
M  END
>  <HEADER>
    HYDROLASE                               27-JAN-04   1S6R              

>  <TITLE>
    908R CLASS C BETA-LACTAMASE BOUND TO IODO-ACETAMIDO-PHENYL            
   2 BORONIC ACID                                                         

>  <COMPND>
    MOL_ID: 1;                                                            
   2 MOLECULE: BETA-LACTAMASE;                                            
   3 CHAIN: A;                                                            
   4 SYNONYM: CEPHALOSPORINASE;                                           
   5 EC: 3.5.2.6;                                                         
   6 ENGINEERED: YES                                                      

>  <SOURCE>
    MOL_ID: 1;                                                            
   2 ORGANISM_SCIENTIFIC: ENTEROBACTER CLOACAE;                           
   3 ORGANISM_TAXID: 550;                                                 
   4 STRAIN: 908R;                                                        
   5 EXPRESSION_SYSTEM: ESCHERICHIA COLI;                                 
   6 EXPRESSION_SYSTEM_TAXID: 562                                         

>  <KEYWDS>
    HYDROLASE                                                             

>  <EXPDTA>
    X-RAY DIFFRACTION                                                     

>  <AUTHOR>
    J.WOUTERS                                                             

>  <REVDAT>
   3   31-MAR-10 1S6R    1       HETATM                                   
   2   24-FEB-09 1S6R    1       VERSN                                    
   1   24-FEB-04 1S6R    0                                                

>  <JRNL>
      AUTH   J.WOUTERS,E.FONZE,M.VERMEIRE,J.M.FRERE,P.CHARLIER            
      TITL   CRYSTAL STRUCTURE OF ENTEROBACTER CLOACAE 908R               
      TITL 2 CLASS C BETA-LACTAMASE BOUND TO                              
      TITL 3 IODO-ACETAMIDO-PHENYL BORONIC ACID, A                        
      TITL 4 TRANSITION-STATE ANALOGUE.                                   
      REF    CELL.MOL.LIFE SCI.            V.  60  1764 2003              
      REFN                   ISSN 1420-682X                               
      PMID   14521155                                                     
      DOI    10.1007/S00018-003-3189-2                                    

>  <REMARK>
   2                                                                      
   2 RESOLUTION.    2.24 ANGSTROMS.                                       
   3                                                                      
   3 REFINEMENT.                                                          
   3   PROGRAM     : SHELXL-97                                            
   3   AUTHORS     : G.M.SHELDRICK                                        
   3                                                                      
   3  DATA USED IN REFINEMENT.                                            
   3   RESOLUTION RANGE HIGH (ANGSTROMS) : 2.24                           
   3   RESOLUTION RANGE LOW  (ANGSTROMS) : 10.00                          
   3   DATA CUTOFF            (SIGMA(F)) : 0.000                          
   3   COMPLETENESS FOR RANGE        (%) : 88.6                           
   3   CROSS-VALIDATION METHOD           : FREE R                         
   3   FREE R VALUE TEST SET SELECTION   : RANDOM                         
   3                                                                      
   3  FIT TO DATA USED IN REFINEMENT (NO CUTOFF).                         
   3   R VALUE   (WORKING + TEST SET, NO CUTOFF) : NULL                   
   3   R VALUE          (WORKING SET, NO CUTOFF) : 0.226                  
   3   FREE R VALUE                  (NO CUTOFF) : 0.293                  
   3   FREE R VALUE TEST SET SIZE (%, NO CUTOFF) : 5.600                  
   3   FREE R VALUE TEST SET COUNT   (NO CUTOFF) : 659                    
   3   TOTAL NUMBER OF REFLECTIONS   (NO CUTOFF) : 11810                  
   3                                                                      
   3  FIT/AGREEMENT OF MODEL FOR DATA WITH F>4SIG(F).                     
   3   R VALUE   (WORKING + TEST SET, F>4SIG(F)) : NULL                   
   3   R VALUE          (WORKING SET, F>4SIG(F)) : 0.204                  
   3   FREE R VALUE                  (F>4SIG(F)) : 0.281                  
   3   FREE R VALUE TEST SET SIZE (%, F>4SIG(F)) : 5.700                  
   3   FREE R VALUE TEST SET COUNT   (F>4SIG(F)) : 546                    
   3   TOTAL NUMBER OF REFLECTIONS   (F>4SIG(F)) : 9588                   
   3                                                                      
   3  NUMBER OF NON-HYDROGEN ATOMS USED IN REFINEMENT.                    
   3   PROTEIN ATOMS      : 2756                                          
   3   NUCLEIC ACID ATOMS : 0                                             
   3   HETEROGEN ATOMS    : 14                                            
   3   SOLVENT ATOMS      : 47                                            
   3                                                                      
   3  MODEL REFINEMENT.                                                   
   3   OCCUPANCY SUM OF NON-HYDROGEN ATOMS      : 2814.00                 
   3   OCCUPANCY SUM OF HYDROGEN ATOMS          : 0.00                    
   3   NUMBER OF DISCRETELY DISORDERED RESIDUES : 1                       
   3   NUMBER OF LEAST-SQUARES PARAMETERS       : 11341                   
   3   NUMBER OF RESTRAINTS                     : 11667                   
   3                                                                      
   3  RMS DEVIATIONS FROM RESTRAINT TARGET VALUES.                        
   3   BOND LENGTHS                         (A) : 0.004                   
   3   ANGLE DISTANCES                      (A) : 0.016                   
   3   SIMILAR DISTANCES (NO TARGET VALUES) (A) : 0.000                   
   3   DISTANCES FROM RESTRAINT PLANES      (A) : 0.020                   
   3   ZERO CHIRAL VOLUMES               (A**3) : 0.017                   
   3   NON-ZERO CHIRAL VOLUMES           (A**3) : 0.025                   
   3   ANTI-BUMPING DISTANCE RESTRAINTS     (A) : 0.015                   
   3   RIGID-BOND ADP COMPONENTS         (A**2) : 0.000                   
   3   SIMILAR ADP COMPONENTS            (A**2) : 0.010                   
   3   APPROXIMATELY ISOTROPIC ADPS      (A**2) : 0.000                   
   3                                                                      
   3  BULK SOLVENT MODELING.                                              
   3   METHOD USED: NULL                                                  
   3                                                                      
   3  STEREOCHEMISTRY TARGET VALUES : ENGH AND HUBER                      
   3   SPECIAL CASE: NULL                                                 
   3                                                                      
   3  OTHER REFINEMENT REMARKS: NULL                                      
   4                                                                      
   4 1S6R COMPLIES WITH FORMAT V. 3.15, 01-DEC-08                         
 100                                                                      
 100 THIS ENTRY HAS BEEN PROCESSED BY RCSB ON 28-JAN-04.                  
 100 THE RCSB ID CODE IS RCSB021437.                                      
 200                                                                      
 200 EXPERIMENTAL DETAILS                                                 
 200  EXPERIMENT TYPE                : X-RAY DIFFRACTION                  
 200  DATE OF DATA COLLECTION        : NULL                               
 200  TEMPERATURE           (KELVIN) : 100                                
 200  PH                             : 9                                  
 200  NUMBER OF CRYSTALS USED        : 1                                  
 200                                                                      
 200  SYNCHROTRON              (Y/N) : N                                  
 200  RADIATION SOURCE               : ROTATING ANODE                     
 200  BEAMLINE                       : NULL                               
 200  X-RAY GENERATOR MODEL          : RIGAKU RU200                       
 200  MONOCHROMATIC OR LAUE    (M/L) : M                                  
 200  WAVELENGTH OR RANGE        (A) : 1.54179                            
 200  MONOCHROMATOR                  : GRAPHITE                           
 200  OPTICS                         : NULL                               
 200                                                                      
 200  DETECTOR TYPE                  : AREA DETECTOR                      
 200  DETECTOR MANUFACTURER          : SIEMENS                            
 200  INTENSITY-INTEGRATION SOFTWARE : NULL                               
 200  DATA SCALING SOFTWARE          : NULL                               
 200                                                                      
 200  NUMBER OF UNIQUE REFLECTIONS   : 13652                              
 200  RESOLUTION RANGE HIGH      (A) : 2.240                              
 200  RESOLUTION RANGE LOW       (A) : 30.000                             
 200  REJECTION CRITERIA  (SIGMA(I)) : 0.000                              
 200                                                                      
 200 OVERALL.                                                             
 200  COMPLETENESS FOR RANGE     (%) : 83.5                               
 200  DATA REDUNDANCY                : NULL                               
 200  R MERGE                    (I) : NULL                               
 200  R SYM                      (I) : NULL                               
 200  <I/SIGMA(I)> FOR THE DATA SET  : NULL                               
 200                                                                      
 200 IN THE HIGHEST RESOLUTION SHELL.                                     
 200  HIGHEST RESOLUTION SHELL, RANGE HIGH (A) : NULL                     
 200  HIGHEST RESOLUTION SHELL, RANGE LOW  (A) : NULL                     
 200  COMPLETENESS FOR SHELL     (%) : NULL                               
 200  DATA REDUNDANCY IN SHELL       : NULL                               
 200  R MERGE FOR SHELL          (I) : NULL                               
 200  R SYM FOR SHELL            (I) : NULL                               
 200  <I/SIGMA(I)> FOR SHELL         : NULL                               
 200                                                                      
 200 DIFFRACTION PROTOCOL: SINGLE WAVELENGTH                              
 200 METHOD USED TO DETERMINE THE STRUCTURE: AB INITIO                    
 200 SOFTWARE USED: SHELX                                                 
 200 STARTING MODEL: NULL                                                 
 200                                                                      
 200 REMARK: NULL                                                         
 280                                                                      
 280 CRYSTAL                                                              
 280 SOLVENT CONTENT, VS   (%): 48.28                                     
 280 MATTHEWS COEFFICIENT, VM (ANGSTROMS**3/DA): 2.38                     
 280                                                                      
 280 CRYSTALLIZATION CONDITIONS: 0.1M BICINE BUFFER, 30% PEG (MR          
 280  6000), PH 9, VAPOR DIFFUSION, HANGING DROP, TEMPERATURE 298K        
 290                                                                      
 290 CRYSTALLOGRAPHIC SYMMETRY                                            
 290 SYMMETRY OPERATORS FOR SPACE GROUP: P 21 21 2                        
 290                                                                      
 290      SYMOP   SYMMETRY                                                
 290     NNNMMM   OPERATOR                                                
 290       1555   X,Y,Z                                                   
 290       2555   -X,-Y,Z                                                 
 290       3555   -X+1/2,Y+1/2,-Z                                         
 290       4555   X+1/2,-Y+1/2,-Z                                         
 290                                                                      
 290     WHERE NNN -> OPERATOR NUMBER                                     
 290           MMM -> TRANSLATION VECTOR                                  
 290                                                                      
 290 CRYSTALLOGRAPHIC SYMMETRY TRANSFORMATIONS                            
 290 THE FOLLOWING TRANSFORMATIONS OPERATE ON THE ATOM/HETATM             
 290 RECORDS IN THIS ENTRY TO PRODUCE CRYSTALLOGRAPHICALLY                
 290 RELATED MOLECULES.                                                   
 290   SMTRY1   1  1.000000  0.000000  0.000000        0.00000            
 290   SMTRY2   1  0.000000  1.000000  0.000000        0.00000            
 290   SMTRY3   1  0.000000  0.000000  1.000000        0.00000            
 290   SMTRY1   2 -1.000000  0.000000  0.000000        0.00000            
 290   SMTRY2   2  0.000000 -1.000000  0.000000        0.00000            
 290   SMTRY3   2  0.000000  0.000000  1.000000        0.00000            
 290   SMTRY1   3 -1.000000  0.000000  0.000000       23.19050            
 290   SMTRY2   3  0.000000  1.000000  0.000000       41.88150            
 290   SMTRY3   3  0.000000  0.000000 -1.000000        0.00000            
 290   SMTRY1   4  1.000000  0.000000  0.000000       23.19050            
 290   SMTRY2   4  0.000000 -1.000000  0.000000       41.88150            
 290   SMTRY3   4  0.000000  0.000000 -1.000000        0.00000            
 290                                                                      
 290 REMARK: NULL                                                         
 300                                                                      
 300 BIOMOLECULE: 1                                                       
 300 SEE REMARK 350 FOR THE AUTHOR PROVIDED AND/OR PROGRAM                
 300 GENERATED ASSEMBLY INFORMATION FOR THE STRUCTURE IN                  
 300 THIS ENTRY. THE REMARK MAY ALSO PROVIDE INFORMATION ON               
 300 BURIED SURFACE AREA.                                                 
 300 REMARK: ASYMETRIC UNIT CORRESPONDS TO BIOLOGICAL UNIT                
 350                                                                      
 350 COORDINATES FOR A COMPLETE MULTIMER REPRESENTING THE KNOWN           
 350 BIOLOGICALLY SIGNIFICANT OLIGOMERIZATION STATE OF THE                
 350 MOLECULE CAN BE GENERATED BY APPLYING BIOMT TRANSFORMATIONS          
 350 GIVEN BELOW.  BOTH NON-CRYSTALLOGRAPHIC AND                          
 350 CRYSTALLOGRAPHIC OPERATIONS ARE GIVEN.                               
 350                                                                      
 350 BIOMOLECULE: 1                                                       
 350 AUTHOR DETERMINED BIOLOGICAL UNIT: MONOMERIC                         
 350 SOFTWARE DETERMINED QUATERNARY STRUCTURE: MONOMERIC                  
 350 SOFTWARE USED: PISA                                                  
 350 APPLY THE FOLLOWING TO CHAINS: A                                     
 350   BIOMT1   1  1.000000  0.000000  0.000000        0.00000            
 350   BIOMT2   1  0.000000  1.000000  0.000000        0.00000            
 350   BIOMT3   1  0.000000  0.000000  1.000000        0.00000            
 470                                                                      
 470 MISSING ATOM                                                         
 470 THE FOLLOWING RESIDUES HAVE MISSING ATOMS (M=MODEL NUMBER;           
 470 RES=RESIDUE NAME; C=CHAIN IDENTIFIER; SSEQ=SEQUENCE NUMBER;          
 470 I=INSERTION CODE):                                                   
 470   M RES CSSEQI  ATOMS                                                
 470     LYS A  99    CG   CD   CE   NZ                                   
 500                                                                      
 500 GEOMETRY AND STEREOCHEMISTRY                                         
 500 SUBTOPIC: CLOSE CONTACTS IN SAME ASYMMETRIC UNIT                     
 500                                                                      
 500 THE FOLLOWING ATOMS ARE IN CLOSE CONTACT.                            
 500                                                                      
 500  ATM1  RES C  SSEQI   ATM2  RES C  SSEQI           DISTANCE          
 500   OG   SER A    64     C1   IAP A     1              2.19            
 500                                                                      
 500 REMARK: NULL                                                         
 500                                                                      
 500 GEOMETRY AND STEREOCHEMISTRY                                         
 500 SUBTOPIC: TORSION ANGLES                                             
 500                                                                      
 500 TORSION ANGLES OUTSIDE THE EXPECTED RAMACHANDRAN REGIONS:            
 500 (M=MODEL NUMBER; RES=RESIDUE NAME; C=CHAIN IDENTIFIER;               
 500 SSEQ=SEQUENCE NUMBER; I=INSERTION CODE).                             
 500                                                                      
 500 STANDARD TABLE:                                                      
 500 FORMAT:(10X,I3,1X,A3,1X,A1,I4,A1,4X,F7.2,3X,F7.2)                    
 500                                                                      
 500 EXPECTED VALUES: GJ KLEYWEGT AND TA JONES (1996). PHI/PSI-           
 500 CHOLOGY: RAMACHANDRAN REVISITED. STRUCTURE 4, 1395 - 1400            
 500                                                                      
 500  M RES CSSEQI        PSI       PHI                                   
 500    GLN A  35       38.29     75.51                                   
 500    TRP A  93       77.49   -170.11                                   
 500    LEU A  96       91.34    -48.04                                   
 500    GLN A 102      -80.30    -16.30                                   
 500    VAL A 178      -54.76   -131.03                                   
 500    LEU A 184       71.78   -104.56                                   
 500    ARG A 204     -123.78   -100.52                                   
 500    ASP A 205       62.85    -69.13                                   
 500    TYR A 221       23.17   -154.26                                   
 500    VAL A 223      135.73    -37.74                                   
 500    ILE A 262       70.40   -117.44                                   
 500    VAL A 291      -53.28   -121.54                                   
 500    LYS A 315      130.11   -170.03                                   
 500    PHE A 328      124.10   -174.70                                   
 500    LYS A 332       54.74   -103.97                                   
 500    GLN A 333       28.15     22.90                                   
 500    PRO A 345      120.09    -30.14                                   
 500    HIS A 355      -72.77    -44.47                                   
 500                                                                      
 500 REMARK: NULL                                                         
 525                                                                      
 525 SOLVENT                                                              
 525                                                                      
 525 THE SOLVENT MOLECULES HAVE CHAIN IDENTIFIERS THAT                    
 525 INDICATE THE POLYMER CHAIN WITH WHICH THEY ARE MOST                  
 525 CLOSELY ASSOCIATED. THE REMARK LISTS ALL THE SOLVENT                 
 525 MOLECULES WHICH ARE MORE THAN 5A AWAY FROM THE                       
 525 NEAREST POLYMER CHAIN (M = MODEL NUMBER;                             
 525 RES=RESIDUE NAME; C=CHAIN IDENTIFIER; SSEQ=SEQUENCE                  
 525 NUMBER; I=INSERTION CODE):                                           
 525                                                                      
 525  M RES CSSEQI                                                        
 525    HOH A 385        DISTANCE =  5.96 ANGSTROMS                       
 525    HOH A 387        DISTANCE =  6.47 ANGSTROMS                       
 525    HOH A 393        DISTANCE =  5.38 ANGSTROMS                       
 800                                                                      
 800 SITE                                                                 
 800 SITE_IDENTIFIER: AC1                                                 
 800 EVIDENCE_CODE: SOFTWARE                                              
 800 SITE_DESCRIPTION: BINDING SITE FOR RESIDUE IAP A 1                   
 900                                                                      
 900 RELATED ENTRIES                                                      
 900 RELATED ID: 3BLS   RELATED DB: PDB                                   
 900 RELATED ID: 1KDS   RELATED DB: PDB                                   

>  <DBREF>
 1S6R A    3   361  UNP    Q93CA2   Q93CA2_ENTCL    17    375             

>  <SEQRES>
   1 A  359  VAL SER GLU LYS GLN LEU ALA GLU VAL VAL ALA ASN THR          
   2 A  359  VAL THR PRO LEU MET LYS ALA GLN SER VAL PRO GLY MET          
   3 A  359  ALA VAL ALA VAL ILE TYR GLN GLY LYS PRO HIS TYR TYR          
   4 A  359  THR PHE GLY LYS ALA ASP ILE ALA ALA ASN LYS PRO VAL          
   5 A  359  THR PRO GLN THR LEU PHE GLU LEU GLY SER ILE SER LYS          
   6 A  359  THR PHE THR GLY VAL LEU GLY GLY ASP ALA ILE ALA ARG          
   7 A  359  GLY GLU ILE SER LEU ASP ASP PRO VAL THR ARG TYR TRP          
   8 A  359  PRO GLN LEU THR GLY LYS GLN TRP GLN GLY ILE ARG MET          
   9 A  359  LEU ASP LEU ALA THR TYR THR ALA GLY GLY LEU PRO LEU          
  10 A  359  GLN VAL PRO ASP GLU VAL THR ASP ASN ALA SER LEU VAL          
  11 A  359  ARG PHE TYR GLN ASN TRP GLN PRO GLN TRP LYS PRO GLY          
  12 A  359  THR THR ARG LEU TYR ALA ASN ALA SER ILE GLY LEU PHE          
  13 A  359  GLY ALA LEU ALA VAL LYS PRO SER GLY MET PRO TYR GLU          
  14 A  359  GLN ALA MET THR THR ARG VAL LEU LYS PRO LEU LYS LEU          
  15 A  359  ASP HIS THR TRP ILE ASN VAL PRO LYS ALA GLU GLU ALA          
  16 A  359  HIS TYR ALA TRP GLY TYR ARG ASP GLY LYS ALA VAL ARG          
  17 A  359  VAL SER PRO GLY MET LEU ASP ALA GLN ALA TYR GLY VAL          
  18 A  359  LYS THR ASN VAL GLN ASP MET ALA ASN TRP VAL MET ALA          
  19 A  359  ASN MET ALA PRO GLU ASN VAL ALA ASP ALA SER LEU LYS          
  20 A  359  GLN GLY ILE ALA LEU ALA GLN SER ARG TYR TRP ARG ILE          
  21 A  359  GLY SER MET TYR GLN GLY LEU GLY TRP GLU MET LEU ASN          
  22 A  359  TRP PRO VAL GLU ALA ASN THR VAL VAL GLU GLY SER ASP          
  23 A  359  SER LYS VAL ALA LEU ALA PRO LEU PRO VAL VAL GLU VAL          
  24 A  359  ASN PRO PRO ALA PRO PRO VAL LYS ALA SER TRP VAL HIS          
  25 A  359  LYS THR GLY SER THR GLY GLY PHE GLY SER TYR VAL ALA          
  26 A  359  PHE ILE PRO GLU LYS GLN ILE GLY ILE VAL MET LEU ALA          
  27 A  359  ASN THR SER TYR PRO ASN PRO ALA ARG VAL GLU ALA ALA          
  28 A  359  TYR HIS ILE LEU GLU ALA LEU GLN                              

>  <HET>
 IAP  A   1      14                                                       

>  <HETNAM>
     IAP 4-IODO-ACETAMIDO PHENYLBORONIC ACID                              

>  <FORMUL>
   2  IAP    C8 H9 B I N O3                                               
   3  HOH   *47(H2 O)                                                     

>  <HELIX>
   1   1 SER A    4  GLN A   23  1                                  20    
   2   2 GLY A   63  ILE A   65  5                                   3    
   3   3 SER A   66  ARG A   80  1                                  15    
   4   4 PRO A   88  TYR A   92  5                                   5    
   5   5 GLY A   98  GLN A  102  5                                   5    
   6   6 ARG A  105  THR A  111  1                                   7    
   7   7 ASP A  127  TRP A  138  1                                  12    
   8   8 ALA A  151  ALA A  162  1                                  12    
   9   9 VAL A  163  GLY A  167  5                                   5    
  10  10 PRO A  169  VAL A  178  1                                  10    
  11  11 PRO A  192  ALA A  197  1                                   6    
  12  12 LEU A  216  TYR A  221  1                                   6    
  13  13 VAL A  227  ALA A  239  1                                  13    
  14  14 PRO A  240  VAL A  243  5                                   4    
  15  15 ASP A  245  GLN A  256  1                                  12    
  16  16 GLU A  279  SER A  287  1                                   9    
  17  17 ASP A  288  LEU A  293  1                                   6    
  18  18 PRO A  345  ALA A  359  1                                  15    

>  <SHEET>
   1   A 9 PRO A  38  GLY A  44  0                                        
   2   A 9 GLY A  27  TYR A  34 -1  N  VAL A  32   O  HIS A  39           
   3   A 9 ILE A 334  ALA A 340 -1  O  GLY A 335   N  ILE A  33           
   4   A 9 GLY A 323  ILE A 329 -1  N  GLY A 323   O  ALA A 340           
   5   A 9 SER A 311  SER A 318 -1  N  GLY A 317   O  SER A 324           
   6   A 9 GLU A 272  ASN A 275 -1  N  LEU A 274   O  TRP A 312           
   7   A 9 MET A 265  GLN A 267 -1  N  TYR A 266   O  MET A 273           
   8   A 9 ARG A 258  ILE A 262 -1  N  ILE A 262   O  MET A 265           
   9   A 9 VAL A 299  ALA A 305 -1  O  VAL A 299   N  ARG A 261           
   1   B 2 LEU A  59  GLU A  61  0                                        
   2   B 2 LYS A 224  ASN A 226 -1  O  THR A 225   N  PHE A  60           
   1   C 2 THR A 147  ARG A 148  0                                        
   2   C 2 LEU A 296  PRO A 297 -1  O  LEU A 296   N  ARG A 148           
   1   D 2 GLY A 202  TYR A 203  0                                        
   2   D 2 ALA A 208  VAL A 209 -1  O  VAL A 209   N  GLY A 202           

>  <LINK>
       OG  SER A  64                 B   IAP A   1     1555   1555  1.46  

>  <CISPEP>
   1 TRP A  276    PRO A  277          0         3.47                     
   2 ASN A  302    PRO A  303          0         1.81                     

>  <SITE>
   1 AC1  6 SER A  64  GLN A 120  TYR A 150  ASN A 152                    
   2 AC1  6 GLY A 317  SER A 318                                          

>  <ORIGX1>
      1.000000  0.000000  0.000000        0.00000                         

>  <ORIGX2>
      0.000000  1.000000  0.000000        0.00000                         

>  <ORIGX3>
      0.000000  0.000000  1.000000        0.00000                         

>  <SCALE1>
      0.021561  0.000000  0.000000        0.00000                         

>  <SCALE2>
      0.000000  0.011938  0.000000        0.00000                         

>  <SCALE3>
      0.000000  0.000000  0.010437        0.00000                         

>  <MASTER>
      254    0    1   18   15    0    2    6 2817    1   15   28          

$$$$
