start_structures/Ligand_Substrate/Ligand_Complex_Stripped/IM2_4MXB.pdb
 OpenBabel08222315193D

 26 26  0  0  1  0  0  0  0  0999 V2000
   -3.2140    7.4080   51.8500 N   0  0  0  0  0  0  0  0  0  0  0  0
   -3.7600    6.2540   52.5760 C   0  0  2  0  0  0  0  0  0  0  0  0
   -3.3310    4.8920   52.0400 C   0  0  0  0  0  0  0  0  0  0  0  0
   -3.2180    3.9360   52.8120 O   0  0  0  0  0  0  0  0  0  0  0  0
   -5.2790    6.2250   52.4690 C   0  0  0  0  0  0  0  0  0  0  0  0
   -5.8490    7.3940   52.9990 O   0  0  0  0  0  0  0  0  0  0  0  0
   -5.8700    7.8050   54.4240 C   0  0  0  0  0  0  0  0  0  0  0  0
  -10.2990    7.8870   55.2770 C   0  0  2  0  0  0  0  0  0  0  0  0
   -6.8620    8.8250   54.9130 C   0  0  1  0  0  0  0  0  0  0  0  0
   -8.0000    8.0380   55.5980 C   0  0  2  0  0  0  0  0  0  0  0  0
   -9.6590    6.9380   54.5470 C   0  0  1  0  0  0  0  0  0  0  0  0
   -5.2570    7.0850   55.2040 O   0  0  0  0  0  0  0  0  0  0  0  0
   -6.0490    9.7020   55.8540 C   0  0  2  0  0  0  0  0  0  0  0  0
   -6.9600   10.5070   56.5540 O   0  0  0  0  0  0  0  0  0  0  0  0
   -5.1100   10.5780   55.0060 C   0  0  0  0  0  0  0  0  0  0  0  0
   -8.3420    6.9120   54.7430 N   0  0  0  0  0  0  0  0  0  0  0  0
  -10.2790    5.8840   53.9490 C   0  0  0  0  0  0  0  0  0  0  0  0
   -9.7430    5.2960   52.9680 O   0  0  0  0  0  0  0  0  0  0  0  0
  -11.3820    5.4480   54.3650 O   0  0  0  0  0  0  0  0  0  0  0  0
  -11.7740    8.5950   54.6810 S   0  0  0  0  0  0  0  0  0  0  0  0
  -12.1720    9.8390   55.9630 C   0  0  0  0  0  0  0  0  0  0  0  0
  -13.0690    9.3120   57.0860 C   0  0  0  0  0  0  0  0  0  0  0  0
  -13.8010    8.0900   56.6710 N   0  0  0  0  0  0  0  0  0  0  0  0
  -14.9190    8.1070   55.9090 C   0  0  0  0  0  0  0  0  0  0  0  0
  -15.4250    9.2550   55.4370 N   0  0  0  0  0  0  0  0  0  0  0  0
   -9.3230    8.8310   55.6720 C   0  0  0  0  0  0  0  0  0  0  0  0
  2  1  1  6  0  0  0
  3  2  1  0  0  0  0
  3  4  2  0  0  0  0
  5  2  1  0  0  0  0
  5  6  1  0  0  0  0
  6  7  1  0  0  0  0
  7 12  2  0  0  0  0
  8 11  1  0  0  0  0
  8 20  1  6  0  0  0
  8 26  1  0  0  0  0
  9  7  1  1  0  0  0
  9 13  1  0  0  0  0
 10  9  1  6  0  0  0
 10 16  1  0  0  0  0
 10 26  1  0  0  0  0
 11 16  1  0  0  0  0
 11 17  1  1  0  0  0
 13 14  1  0  0  0  0
 13 15  1  6  0  0  0
 17 18  2  0  0  0  0
 17 19  1  0  0  0  0
 20 21  1  0  0  0  0
 21 22  1  0  0  0  0
 22 23  1  0  0  0  0
 23 24  2  0  0  0  0
 24 25  1  0  0  0  0
M  END
>  <HEADER>
    HYDROLASE/ANTIBIOTIC                    26-SEP-13   4MXB              

>  <OBSLTE>
     12-OCT-16 4MXB      5EPH                                             

>  <TITLE>
    CRYSTAL STRUCTURE OF EXTENDED-SPECTRUM BETA-LACTAMASE BEL-1 IN COMPLEX
   2 WITH IMIPENEM                                                        

>  <COMPND>
    MOL_ID: 1;                                                            
   2 MOLECULE: BEL-1;                                                     
   3 CHAIN: A, B, C, D;                                                   
   4 EC: 3.5.2.6;                                                         
   5 ENGINEERED: YES                                                      

>  <SOURCE>
    MOL_ID: 1;                                                            
   2 ORGANISM_SCIENTIFIC: PSEUDOMONAS AERUGINOSA;                         
   3 ORGANISM_TAXID: 287;                                                 
   4 GENE: BLA(BEL1), BLABEL-1;                                           
   5 EXPRESSION_SYSTEM: ESCHERICHIA COLI;                                 
   6 EXPRESSION_SYSTEM_TAXID: 469008;                                     
   7 EXPRESSION_SYSTEM_STRAIN: BL21(DE3);                                 
   8 EXPRESSION_SYSTEM_VECTOR_TYPE: PLASMID;                              
   9 EXPRESSION_SYSTEM_PLASMID: PET-BEL-1                                 

>  <KEYWDS>
    ANTIBIOTIC RESISTANCE, IMIPENEM, OMEGA-LOOP, HYDROLASE-ANTIBIOTIC     
   2 COMPLEX                                                              

>  <EXPDTA>
    X-RAY DIFFRACTION                                                     

>  <AUTHOR>
    S.MANGANI,C.POZZI,J.D.DOCQUIER,M.BENVENUTI                            

>  <REVDAT>
   2   12-OCT-16 4MXB    1       OBSLTE                                   
   1   01-OCT-14 4MXB    0                                                

>  <JRNL>
      AUTH   S.MANGANI,C.POZZI,J.D.DOCQUIER,M.BENVENUTI,F.DE LUCA,        
      AUTH 2 G.M.ROSSOLINI,L.POIREL                                       
      TITL   CRYSTAL STRUCTURE OF THE EXTENDED-SPECTRUM BETA-LACTAMASE    
      TITL 2 BEL-1 IN NATIVE FORM AND IN COMPLEX WITH IMIPENEM AND        
      TITL 3 MOXOLACTAM                                                   
      REF    TO BE PUBLISHED                                              
      REFN                                                                

>  <REMARK>
   2                                                                      
   2 RESOLUTION.    1.79 ANGSTROMS.                                       
   3                                                                      
   3 REFINEMENT.                                                          
   3   PROGRAM     : REFMAC 5.7.0032                                      
   3   AUTHORS     : MURSHUDOV,VAGIN,DODSON                               
   3                                                                      
   3    REFINEMENT TARGET : MAXIMUM LIKELIHOOD                            
   3                                                                      
   3  DATA USED IN REFINEMENT.                                            
   3   RESOLUTION RANGE HIGH (ANGSTROMS) : 1.79                           
   3   RESOLUTION RANGE LOW  (ANGSTROMS) : 48.51                          
   3   DATA CUTOFF            (SIGMA(F)) : NULL                           
   3   COMPLETENESS FOR RANGE        (%) : 92.7                           
   3   NUMBER OF REFLECTIONS             : 87231                          
   3                                                                      
   3  FIT TO DATA USED IN REFINEMENT.                                     
   3   CROSS-VALIDATION METHOD          : THROUGHOUT                      
   3   FREE R VALUE TEST SET SELECTION  : RANDOM                          
   3   R VALUE     (WORKING + TEST SET) : 0.182                           
   3   R VALUE            (WORKING SET) : 0.180                           
   3   FREE R VALUE                     : 0.219                           
   3   FREE R VALUE TEST SET SIZE   (%) : 5.000                           
   3   FREE R VALUE TEST SET COUNT      : 4579                            
   3                                                                      
   3  FIT IN THE HIGHEST RESOLUTION BIN.                                  
   3   TOTAL NUMBER OF BINS USED           : 20                           
   3   BIN RESOLUTION RANGE HIGH       (A) : 1.79                         
   3   BIN RESOLUTION RANGE LOW        (A) : 1.84                         
   3   REFLECTION IN BIN     (WORKING SET) : 6686                         
   3   BIN COMPLETENESS (WORKING+TEST) (%) : 96.62                        
   3   BIN R VALUE           (WORKING SET) : 0.2590                       
   3   BIN FREE R VALUE SET COUNT          : 328                          
   3   BIN FREE R VALUE                    : 0.3260                       
   3                                                                      
   3  NUMBER OF NON-HYDROGEN ATOMS USED IN REFINEMENT.                    
   3   PROTEIN ATOMS            : 8004                                    
   3   NUCLEIC ACID ATOMS       : 0                                       
   3   HETEROGEN ATOMS          : 84                                      
   3   SOLVENT ATOMS            : 719                                     
   3                                                                      
   3  B VALUES.                                                           
   3   FROM WILSON PLOT           (A**2) : 16.44                          
   3   MEAN B VALUE      (OVERALL, A**2) : 21.49                          
   3   OVERALL ANISOTROPIC B VALUE.                                       
   3    B11 (A**2) : 0.00000                                              
   3    B22 (A**2) : -0.01000                                             
   3    B33 (A**2) : 0.01000                                              
   3    B12 (A**2) : -0.00000                                             
   3    B13 (A**2) : 0.01000                                              
   3    B23 (A**2) : -0.00000                                             
   3                                                                      
   3  ESTIMATED OVERALL COORDINATE ERROR.                                 
   3   ESU BASED ON R VALUE                            (A): 0.138         
   3   ESU BASED ON FREE R VALUE                       (A): 0.130         
   3   ESU BASED ON MAXIMUM LIKELIHOOD                 (A): 0.084         
   3   ESU FOR B VALUES BASED ON MAXIMUM LIKELIHOOD (A**2): 2.663         
   3                                                                      
   3 CORRELATION COEFFICIENTS.                                            
   3   CORRELATION COEFFICIENT FO-FC      : 0.953                         
   3   CORRELATION COEFFICIENT FO-FC FREE : 0.929                         
   3                                                                      
   3  RMS DEVIATIONS FROM IDEAL VALUES        COUNT    RMS    WEIGHT      
   3   BOND LENGTHS REFINED ATOMS        (A):  8237 ; 0.009 ; 0.019       
   3   BOND LENGTHS OTHERS               (A):  NULL ;  NULL ;  NULL       
   3   BOND ANGLES REFINED ATOMS   (DEGREES): 11161 ; 1.290 ; 1.980       
   3   BOND ANGLES OTHERS          (DEGREES):  NULL ;  NULL ;  NULL       
   3   TORSION ANGLES, PERIOD 1    (DEGREES):  1048 ; 5.999 ; 5.000       
   3   TORSION ANGLES, PERIOD 2    (DEGREES):   355 ;37.842 ;24.141       
   3   TORSION ANGLES, PERIOD 3    (DEGREES):  1401 ;13.074 ;15.000       
   3   TORSION ANGLES, PERIOD 4    (DEGREES):    58 ;17.858 ;15.000       
   3   CHIRAL-CENTER RESTRAINTS       (A**3):  1288 ; 0.085 ; 0.200       
   3   GENERAL PLANES REFINED ATOMS      (A):  6138 ; 0.006 ; 0.021       
   3   GENERAL PLANES OTHERS             (A):  NULL ;  NULL ;  NULL       
   3   NON-BONDED CONTACTS REFINED ATOMS (A):  NULL ;  NULL ;  NULL       
   3   NON-BONDED CONTACTS OTHERS        (A):  NULL ;  NULL ;  NULL       
   3   NON-BONDED TORSION REFINED ATOMS  (A):  NULL ;  NULL ;  NULL       
   3   NON-BONDED TORSION OTHERS         (A):  NULL ;  NULL ;  NULL       
   3   H-BOND (X...Y) REFINED ATOMS      (A):  NULL ;  NULL ;  NULL       
   3   H-BOND (X...Y) OTHERS             (A):  NULL ;  NULL ;  NULL       
   3   POTENTIAL METAL-ION REFINED ATOMS (A):  NULL ;  NULL ;  NULL       
   3   POTENTIAL METAL-ION OTHERS        (A):  NULL ;  NULL ;  NULL       
   3   SYMMETRY VDW REFINED ATOMS        (A):  NULL ;  NULL ;  NULL       
   3   SYMMETRY VDW OTHERS               (A):  NULL ;  NULL ;  NULL       
   3   SYMMETRY H-BOND REFINED ATOMS     (A):  NULL ;  NULL ;  NULL       
   3   SYMMETRY H-BOND OTHERS            (A):  NULL ;  NULL ;  NULL       
   3   SYMMETRY METAL-ION REFINED ATOMS  (A):  NULL ;  NULL ;  NULL       
   3   SYMMETRY METAL-ION OTHERS         (A):  NULL ;  NULL ;  NULL       
   3                                                                      
   3  ISOTROPIC THERMAL FACTOR RESTRAINTS.     COUNT   RMS    WEIGHT      
   3   MAIN-CHAIN BOND REFINED ATOMS  (A**2):  4183 ; 1.117 ; 1.951       
   3   MAIN-CHAIN BOND OTHER ATOMS    (A**2):  NULL ;  NULL ;  NULL       
   3   MAIN-CHAIN ANGLE REFINED ATOMS (A**2):  5222 ; 1.852 ; 2.917       
   3   MAIN-CHAIN ANGLE OTHER ATOMS   (A**2):  NULL ;  NULL ;  NULL       
   3   SIDE-CHAIN BOND REFINED ATOMS  (A**2):  4054 ; 1.495 ; 2.168       
   3   SIDE-CHAIN BOND OTHER ATOMS    (A**2):  NULL ;  NULL ;  NULL       
   3   SIDE-CHAIN ANGLE REFINED ATOMS (A**2):  NULL ;  NULL ;  NULL       
   3   SIDE-CHAIN ANGLE OTHER ATOMS   (A**2):  NULL ;  NULL ;  NULL       
   3   LONG RANGE B REFINED ATOMS     (A**2): 13408 ; 5.019 ;17.199       
   3   LONG RANGE B OTHER ATOMS       (A**2):  NULL ;  NULL ;  NULL       
   3                                                                      
   3 ANISOTROPIC THERMAL FACTOR RESTRAINTS.    COUNT   RMS   WEIGHT       
   3   RIGID-BOND RESTRAINTS          (A**2):  NULL ;  NULL ;  NULL       
   3   SPHERICITY; FREE ATOMS         (A**2):  NULL ;  NULL ;  NULL       
   3   SPHERICITY; BONDED ATOMS       (A**2):  NULL ;  NULL ;  NULL       
   3                                                                      
   3  NCS RESTRAINTS STATISTICS                                           
   3   NUMBER OF DIFFERENT NCS GROUPS : NULL                              
   3                                                                      
   3  TLS DETAILS                                                         
   3   NUMBER OF TLS GROUPS  : NULL                                       
   3                                                                      
   3  BULK SOLVENT MODELLING.                                             
   3   METHOD USED : MASK                                                 
   3   PARAMETERS FOR MASK CALCULATION                                    
   3   VDW PROBE RADIUS   : 1.20                                          
   3   ION PROBE RADIUS   : 0.80                                          
   3   SHRINKAGE RADIUS   : 0.80                                          
   3                                                                      
   3  OTHER REFINEMENT REMARKS: NULL                                      
   4                                                                      
   4 4MXB COMPLIES WITH FORMAT V. 3.30, 13-JUL-11                         
 100                                                                      
 100 THIS ENTRY HAS BEEN PROCESSED BY RCSB ON 03-OCT-13.                  
 100 THE RCSB ID CODE IS RCSB082482.                                      
 200                                                                      
 200 EXPERIMENTAL DETAILS                                                 
 200  EXPERIMENT TYPE                : X-RAY DIFFRACTION                  
 200  DATE OF DATA COLLECTION        : 13-APR-13                          
 200  TEMPERATURE           (KELVIN) : 100                                
 200  PH                             : 5.6                                
 200  NUMBER OF CRYSTALS USED        : 1                                  
 200                                                                      
 200  SYNCHROTRON              (Y/N) : Y                                  
 200  RADIATION SOURCE               : ESRF                               
 200  BEAMLINE                       : ID29                               
 200  X-RAY GENERATOR MODEL          : NULL                               
 200  MONOCHROMATIC OR LAUE    (M/L) : M                                  
 200  WAVELENGTH OR RANGE        (A) : 0.976                              
 200  MONOCHROMATOR                  : SI(311) AND SI(111)                
 200  OPTICS                         : TOROIDAL MIRROR                    
 200                                                                      
 200  DETECTOR TYPE                  : PIXEL                              
 200  DETECTOR MANUFACTURER          : DECTRIS PILATUS 6M                 
 200  INTENSITY-INTEGRATION SOFTWARE : MOSFLM                             
 200  DATA SCALING SOFTWARE          : SCALA                              
 200                                                                      
 200  NUMBER OF UNIQUE REFLECTIONS   : 91836                              
 200  RESOLUTION RANGE HIGH      (A) : 1.790                              
 200  RESOLUTION RANGE LOW       (A) : 51.680                             
 200  REJECTION CRITERIA  (SIGMA(I)) : 2.000                              
 200                                                                      
 200 OVERALL.                                                             
 200  COMPLETENESS FOR RANGE     (%) : 93.2                               
 200  DATA REDUNDANCY                : 2.400                              
 200  R MERGE                    (I) : 0.08400                            
 200  R SYM                      (I) : NULL                               
 200  <I/SIGMA(I)> FOR THE DATA SET  : 7.5000                             
 200                                                                      
 200 IN THE HIGHEST RESOLUTION SHELL.                                     
 200  HIGHEST RESOLUTION SHELL, RANGE HIGH (A) : 1.79                     
 200  HIGHEST RESOLUTION SHELL, RANGE LOW  (A) : 1.89                     
 200  COMPLETENESS FOR SHELL     (%) : 96.4                               
 200  DATA REDUNDANCY IN SHELL       : 2.40                               
 200  R MERGE FOR SHELL          (I) : 0.38800                            
 200  R SYM FOR SHELL            (I) : NULL                               
 200  <I/SIGMA(I)> FOR SHELL         : 2.700                              
 200                                                                      
 200 DIFFRACTION PROTOCOL: SINGLE WAVELENGTH                              
 200 METHOD USED TO DETERMINE THE STRUCTURE: MOLECULAR REPLACEMENT        
 200 SOFTWARE USED: MOLREP                                                
 200 STARTING MODEL: PDB ENTRY 4MX4                                       
 200                                                                      
 200 REMARK: NULL                                                         
 280                                                                      
 280 CRYSTAL                                                              
 280 SOLVENT CONTENT, VS   (%): 43.00                                     
 280 MATTHEWS COEFFICIENT, VM (ANGSTROMS**3/DA): 2.16                     
 280                                                                      
 280 CRYSTALLIZATION CONDITIONS: 20% PEG 4600, 20% MPD, 0.1M SODIUM       
 280  CITRATE, PH 5.6, VAPOR DIFFUSION, SITTING DROP, TEMPERATURE 298K    
 290                                                                      
 290 CRYSTALLOGRAPHIC SYMMETRY                                            
 290 SYMMETRY OPERATORS FOR SPACE GROUP: P 1 21 1                         
 290                                                                      
 290      SYMOP   SYMMETRY                                                
 290     NNNMMM   OPERATOR                                                
 290       1555   X,Y,Z                                                   
 290       2555   -X,Y+1/2,-Z                                             
 290                                                                      
 290     WHERE NNN -> OPERATOR NUMBER                                     
 290           MMM -> TRANSLATION VECTOR                                  
 290                                                                      
 290 CRYSTALLOGRAPHIC SYMMETRY TRANSFORMATIONS                            
 290 THE FOLLOWING TRANSFORMATIONS OPERATE ON THE ATOM/HETATM             
 290 RECORDS IN THIS ENTRY TO PRODUCE CRYSTALLOGRAPHICALLY                
 290 RELATED MOLECULES.                                                   
 290   SMTRY1   1  1.000000  0.000000  0.000000        0.00000            
 290   SMTRY2   1  0.000000  1.000000  0.000000        0.00000            
 290   SMTRY3   1  0.000000  0.000000  1.000000        0.00000            
 290   SMTRY1   2 -1.000000  0.000000  0.000000        0.00000            
 290   SMTRY2   2  0.000000  1.000000  0.000000       47.93000            
 290   SMTRY3   2  0.000000  0.000000 -1.000000        0.00000            
 290                                                                      
 290 REMARK: NULL                                                         
 300                                                                      
 300 BIOMOLECULE: 1, 2, 3, 4                                              
 300 SEE REMARK 350 FOR THE AUTHOR PROVIDED AND/OR PROGRAM                
 300 GENERATED ASSEMBLY INFORMATION FOR THE STRUCTURE IN                  
 300 THIS ENTRY. THE REMARK MAY ALSO PROVIDE INFORMATION ON               
 300 BURIED SURFACE AREA.                                                 
 350                                                                      
 350 COORDINATES FOR A COMPLETE MULTIMER REPRESENTING THE KNOWN           
 350 BIOLOGICALLY SIGNIFICANT OLIGOMERIZATION STATE OF THE                
 350 MOLECULE CAN BE GENERATED BY APPLYING BIOMT TRANSFORMATIONS          
 350 GIVEN BELOW.  BOTH NON-CRYSTALLOGRAPHIC AND                          
 350 CRYSTALLOGRAPHIC OPERATIONS ARE GIVEN.                               
 350                                                                      
 350 BIOMOLECULE: 1                                                       
 350 AUTHOR DETERMINED BIOLOGICAL UNIT: MONOMERIC                         
 350 SOFTWARE DETERMINED QUATERNARY STRUCTURE: MONOMERIC                  
 350 SOFTWARE USED: PISA                                                  
 350 APPLY THE FOLLOWING TO CHAINS: A                                     
 350   BIOMT1   1  1.000000  0.000000  0.000000        0.00000            
 350   BIOMT2   1  0.000000  1.000000  0.000000        0.00000            
 350   BIOMT3   1  0.000000  0.000000  1.000000        0.00000            
 350                                                                      
 350 BIOMOLECULE: 2                                                       
 350 AUTHOR DETERMINED BIOLOGICAL UNIT: MONOMERIC                         
 350 SOFTWARE DETERMINED QUATERNARY STRUCTURE: MONOMERIC                  
 350 SOFTWARE USED: PISA                                                  
 350 APPLY THE FOLLOWING TO CHAINS: B                                     
 350   BIOMT1   1  1.000000  0.000000  0.000000        0.00000            
 350   BIOMT2   1  0.000000  1.000000  0.000000        0.00000            
 350   BIOMT3   1  0.000000  0.000000  1.000000        0.00000            
 350                                                                      
 350 BIOMOLECULE: 3                                                       
 350 AUTHOR DETERMINED BIOLOGICAL UNIT: MONOMERIC                         
 350 SOFTWARE DETERMINED QUATERNARY STRUCTURE: MONOMERIC                  
 350 SOFTWARE USED: PISA                                                  
 350 APPLY THE FOLLOWING TO CHAINS: C                                     
 350   BIOMT1   1  1.000000  0.000000  0.000000        0.00000            
 350   BIOMT2   1  0.000000  1.000000  0.000000        0.00000            
 350   BIOMT3   1  0.000000  0.000000  1.000000        0.00000            
 350                                                                      
 350 BIOMOLECULE: 4                                                       
 350 AUTHOR DETERMINED BIOLOGICAL UNIT: MONOMERIC                         
 350 SOFTWARE DETERMINED QUATERNARY STRUCTURE: MONOMERIC                  
 350 SOFTWARE USED: PISA                                                  
 350 APPLY THE FOLLOWING TO CHAINS: D                                     
 350   BIOMT1   1  1.000000  0.000000  0.000000        0.00000            
 350   BIOMT2   1  0.000000  1.000000  0.000000        0.00000            
 350   BIOMT3   1  0.000000  0.000000  1.000000        0.00000            
 465                                                                      
 465 MISSING RESIDUES                                                     
 465 THE FOLLOWING RESIDUES WERE NOT LOCATED IN THE                       
 465 EXPERIMENT. (M=MODEL NUMBER; RES=RESIDUE NAME; C=CHAIN               
 465 IDENTIFIER; SSSEQ=SEQUENCE NUMBER; I=INSERTION CODE.)                
 465                                                                      
 465   M RES C SSSEQI                                                     
 465     MET A     1                                                      
 465     LYS A     2                                                      
 465     LEU A     3                                                      
 465     LEU A     4                                                      
 465     LEU A     5                                                      
 465     TYR A     6                                                      
 465     PRO A     7                                                      
 465     LEU A     8                                                      
 465     LEU A     9                                                      
 465     LEU A    10                                                      
 465     PHE A    11                                                      
 465     LEU A    12                                                      
 465     VAL A    13                                                      
 465     ILE A    14                                                      
 465     PRO A    15                                                      
 465     ALA A    16                                                      
 465     PHE A    17                                                      
 465     ALA A    18                                                      
 465     GLN A    19                                                      
 465     ALA A    20                                                      
 465     MET B     1                                                      
 465     LYS B     2                                                      
 465     LEU B     3                                                      
 465     LEU B     4                                                      
 465     LEU B     5                                                      
 465     TYR B     6                                                      
 465     PRO B     7                                                      
 465     LEU B     8                                                      
 465     LEU B     9                                                      
 465     LEU B    10                                                      
 465     PHE B    11                                                      
 465     LEU B    12                                                      
 465     VAL B    13                                                      
 465     ILE B    14                                                      
 465     PRO B    15                                                      
 465     ALA B    16                                                      
 465     PHE B    17                                                      
 465     ALA B    18                                                      
 465     GLN B    19                                                      
 465     ALA B    20                                                      
 465     GLU B   159                                                      
 465     PRO B   160                                                      
 465     THR B   161                                                      
 465     LEU B   162                                                      
 465     ASN B   163                                                      
 465     THR B   164                                                      
 465     ASN B   165                                                      
 465     MET C     1                                                      
 465     LYS C     2                                                      
 465     LEU C     3                                                      
 465     LEU C     4                                                      
 465     LEU C     5                                                      
 465     TYR C     6                                                      
 465     PRO C     7                                                      
 465     LEU C     8                                                      
 465     LEU C     9                                                      
 465     LEU C    10                                                      
 465     PHE C    11                                                      
 465     LEU C    12                                                      
 465     VAL C    13                                                      
 465     ILE C    14                                                      
 465     PRO C    15                                                      
 465     ALA C    16                                                      
 465     PHE C    17                                                      
 465     ALA C    18                                                      
 465     GLN C    19                                                      
 465     ALA C    20                                                      
 465     MET D     1                                                      
 465     LYS D     2                                                      
 465     LEU D     3                                                      
 465     LEU D     4                                                      
 465     LEU D     5                                                      
 465     TYR D     6                                                      
 465     PRO D     7                                                      
 465     LEU D     8                                                      
 465     LEU D     9                                                      
 465     LEU D    10                                                      
 465     PHE D    11                                                      
 465     LEU D    12                                                      
 465     VAL D    13                                                      
 465     ILE D    14                                                      
 465     PRO D    15                                                      
 465     ALA D    16                                                      
 465     PHE D    17                                                      
 465     ALA D    18                                                      
 465     GLN D    19                                                      
 465     ALA D    20                                                      
 470                                                                      
 470 MISSING ATOM                                                         
 470 THE FOLLOWING RESIDUES HAVE MISSING ATOMS (M=MODEL NUMBER;           
 470 RES=RESIDUE NAME; C=CHAIN IDENTIFIER; SSEQ=SEQUENCE NUMBER;          
 470 I=INSERTION CODE):                                                   
 470   M RES CSSEQI  ATOMS                                                
 470     ARG B 157    CG   CD   NE   CZ   NH1  NH2                        
 470     THR C 164    OG1  CG2                                            
 470     ARG D 157    CG   CD   NE   CZ   NH1  NH2                        
 500                                                                      
 500 GEOMETRY AND STEREOCHEMISTRY                                         
 500 SUBTOPIC: TORSION ANGLES                                             
 500                                                                      
 500 TORSION ANGLES OUTSIDE THE EXPECTED RAMACHANDRAN REGIONS:            
 500 (M=MODEL NUMBER; RES=RESIDUE NAME; C=CHAIN IDENTIFIER;               
 500 SSEQ=SEQUENCE NUMBER; I=INSERTION CODE).                             
 500                                                                      
 500 STANDARD TABLE:                                                      
 500 FORMAT:(10X,I3,1X,A3,1X,A1,I4,A1,4X,F7.2,3X,F7.2)                    
 500                                                                      
 500 EXPECTED VALUES: GJ KLEYWEGT AND TA JONES (1996). PHI/PSI-           
 500 CHOLOGY: RAMACHANDRAN REVISITED. STRUCTURE 4, 1395 - 1400            
 500                                                                      
 500  M RES CSSEQI        PSI       PHI                                   
 500    MET A  60       63.94   -103.00                                   
 500    SER A  62      -34.84   -134.08                                   
 500    ALA A  98       65.77   -153.57                                   
 500    THR A 213     -135.19   -106.93                                   
 500    SER B  62      -38.31   -130.90                                   
 500    ALA B  98       69.36   -156.71                                   
 500    THR B 213     -135.67   -111.95                                   
 500    MET C  60       58.63   -105.28                                   
 500    ALA C  98       65.24   -155.62                                   
 500    ILE C 158     -169.25   -101.10                                   
 500    GLU C 159     -144.67     57.51                                   
 500    THR C 164       57.99    -96.23                                   
 500    THR C 166       71.26   -114.64                                   
 500    THR C 213     -138.90   -114.70                                   
 500    MET D  60       71.21   -106.19                                   
 500    SER D  62      -38.15   -133.56                                   
 500    ALA D  98       66.73   -157.68                                   
 500    THR D 213     -136.48   -118.83                                   
 500                                                                      
 500 REMARK: NULL                                                         
 800                                                                      
 800 SITE                                                                 
 800 SITE_IDENTIFIER: AC1                                                 
 800 EVIDENCE_CODE: SOFTWARE                                              
 800 SITE_DESCRIPTION: BINDING SITE FOR RESIDUE IM2 A 300                 
 800                                                                      
 800 SITE_IDENTIFIER: AC2                                                 
 800 EVIDENCE_CODE: SOFTWARE                                              
 800 SITE_DESCRIPTION: BINDING SITE FOR RESIDUE CL A 301                  
 800                                                                      
 800 SITE_IDENTIFIER: AC3                                                 
 800 EVIDENCE_CODE: SOFTWARE                                              
 800 SITE_DESCRIPTION: BINDING SITE FOR RESIDUE IM2 B 300                 
 800                                                                      
 800 SITE_IDENTIFIER: AC4                                                 
 800 EVIDENCE_CODE: SOFTWARE                                              
 800 SITE_DESCRIPTION: BINDING SITE FOR RESIDUE CL B 301                  
 800                                                                      
 800 SITE_IDENTIFIER: AC5                                                 
 800 EVIDENCE_CODE: SOFTWARE                                              
 800 SITE_DESCRIPTION: BINDING SITE FOR RESIDUE IM2 C 300                 
 800                                                                      
 800 SITE_IDENTIFIER: AC6                                                 
 800 EVIDENCE_CODE: SOFTWARE                                              
 800 SITE_DESCRIPTION: BINDING SITE FOR RESIDUE CL C 301                  
 800                                                                      
 800 SITE_IDENTIFIER: AC7                                                 
 800 EVIDENCE_CODE: SOFTWARE                                              
 800 SITE_DESCRIPTION: BINDING SITE FOR RESIDUE IM2 D 300                 
 800                                                                      
 800 SITE_IDENTIFIER: AC8                                                 
 800 EVIDENCE_CODE: SOFTWARE                                              
 800 SITE_DESCRIPTION: BINDING SITE FOR RESIDUE CL D 301                  
 900                                                                      
 900 RELATED ENTRIES                                                      
 900 RELATED ID: 4MX4   RELATED DB: PDB                                   
 900 CRYSTAL STRUCTURE OF EXTENDED-SPECTRUM BETA-LACTAMASE BEL-1          
 900 (ORTHORHOMBIC FORM)                                                  
 900 RELATED ID: 4MXG   RELATED DB: PDB                                   
 900 CRYSTAL STRUCTURE OF EXTENDED-SPECTRUM BETA-LACTAMASE BEL-1          
 900 (MONOCLINIC FORM)                                                    
 900 RELATED ID: 4MXH   RELATED DB: PDB                                   
 900 CRYSTAL STRUCTURE OF EXTENDED-SPECTRUM BETA-LACTAMASE BEL-1          
 900 IN COMPLEX WITH MOXOLACTAM                                           

>  <DBREF>
 4MXB A    1   283  UNP    Q3SAW3   Q3SAW3_PSEAI     1    283             
 4MXB B    1   283  UNP    Q3SAW3   Q3SAW3_PSEAI     1    283             
 4MXB C    1   283  UNP    Q3SAW3   Q3SAW3_PSEAI     1    283             
 4MXB D    1   283  UNP    Q3SAW3   Q3SAW3_PSEAI     1    283             

>  <SEQRES>
   1 A  283  MET LYS LEU LEU LEU TYR PRO LEU LEU LEU PHE LEU VAL          
   2 A  283  ILE PRO ALA PHE ALA GLN ALA ASP PHE GLU HIS ALA ILE          
   3 A  283  SER ASP LEU GLU ALA HIS ASN GLN ALA LYS ILE GLY VAL          
   4 A  283  ALA LEU VAL SER GLU ASN GLY ASN LEU ILE GLN GLY TYR          
   5 A  283  ARG ALA ASN GLU ARG PHE ALA MET CYS SER THR PHE LYS          
   6 A  283  LEU PRO LEU ALA ALA LEU VAL LEU SER ARG ILE ASP ALA          
   7 A  283  GLY GLU GLU ASN PRO GLU ARG LYS LEU HIS TYR ASP SER          
   8 A  283  ALA PHE LEU GLU GLU TYR ALA PRO ALA ALA LYS ARG TYR          
   9 A  283  VAL ALA THR GLY TYR MET THR VAL THR GLU ALA ILE GLN          
  10 A  283  SER ALA LEU GLN LEU SER ASP ASN ALA ALA ALA ASN LEU          
  11 A  283  LEU LEU LYS GLU VAL GLY GLY PRO PRO LEU LEU THR LYS          
  12 A  283  TYR PHE ARG SER LEU GLY ASP LYS VAL SER ARG LEU ASP          
  13 A  283  ARG ILE GLU PRO THR LEU ASN THR ASN THR PRO GLY ASP          
  14 A  283  GLU ARG ASP THR THR THR PRO MET SER MET ALA GLN THR          
  15 A  283  VAL SER LYS LEU ILE PHE GLY ASP THR LEU THR TYR LYS          
  16 A  283  SER LYS GLY GLN LEU ARG ARG LEU LEU ILE GLY ASN GLN          
  17 A  283  THR GLY ASP LYS THR ILE ARG ALA GLY LEU PRO ASP SER          
  18 A  283  TRP VAL THR GLY ASP LYS THR GLY SER CYS ALA ASN GLY          
  19 A  283  GLY ARG ASN ASP VAL ALA PHE PHE ILE THR THR ALA GLY          
  20 A  283  LYS LYS TYR VAL LEU SER VAL TYR THR ASN ALA PRO GLU          
  21 A  283  LEU GLN GLY GLU GLU ARG ALA LEU LEU ILE ALA SER VAL          
  22 A  283  ALA LYS LEU ALA ARG GLN TYR VAL VAL HIS                      
   1 B  283  MET LYS LEU LEU LEU TYR PRO LEU LEU LEU PHE LEU VAL          
   2 B  283  ILE PRO ALA PHE ALA GLN ALA ASP PHE GLU HIS ALA ILE          
   3 B  283  SER ASP LEU GLU ALA HIS ASN GLN ALA LYS ILE GLY VAL          
   4 B  283  ALA LEU VAL SER GLU ASN GLY ASN LEU ILE GLN GLY TYR          
   5 B  283  ARG ALA ASN GLU ARG PHE ALA MET CYS SER THR PHE LYS          
   6 B  283  LEU PRO LEU ALA ALA LEU VAL LEU SER ARG ILE ASP ALA          
   7 B  283  GLY GLU GLU ASN PRO GLU ARG LYS LEU HIS TYR ASP SER          
   8 B  283  ALA PHE LEU GLU GLU TYR ALA PRO ALA ALA LYS ARG TYR          
   9 B  283  VAL ALA THR GLY TYR MET THR VAL THR GLU ALA ILE GLN          
  10 B  283  SER ALA LEU GLN LEU SER ASP ASN ALA ALA ALA ASN LEU          
  11 B  283  LEU LEU LYS GLU VAL GLY GLY PRO PRO LEU LEU THR LYS          
  12 B  283  TYR PHE ARG SER LEU GLY ASP LYS VAL SER ARG LEU ASP          
  13 B  283  ARG ILE GLU PRO THR LEU ASN THR ASN THR PRO GLY ASP          
  14 B  283  GLU ARG ASP THR THR THR PRO MET SER MET ALA GLN THR          
  15 B  283  VAL SER LYS LEU ILE PHE GLY ASP THR LEU THR TYR LYS          
  16 B  283  SER LYS GLY GLN LEU ARG ARG LEU LEU ILE GLY ASN GLN          
  17 B  283  THR GLY ASP LYS THR ILE ARG ALA GLY LEU PRO ASP SER          
  18 B  283  TRP VAL THR GLY ASP LYS THR GLY SER CYS ALA ASN GLY          
  19 B  283  GLY ARG ASN ASP VAL ALA PHE PHE ILE THR THR ALA GLY          
  20 B  283  LYS LYS TYR VAL LEU SER VAL TYR THR ASN ALA PRO GLU          
  21 B  283  LEU GLN GLY GLU GLU ARG ALA LEU LEU ILE ALA SER VAL          
  22 B  283  ALA LYS LEU ALA ARG GLN TYR VAL VAL HIS                      
   1 C  283  MET LYS LEU LEU LEU TYR PRO LEU LEU LEU PHE LEU VAL          
   2 C  283  ILE PRO ALA PHE ALA GLN ALA ASP PHE GLU HIS ALA ILE          
   3 C  283  SER ASP LEU GLU ALA HIS ASN GLN ALA LYS ILE GLY VAL          
   4 C  283  ALA LEU VAL SER GLU ASN GLY ASN LEU ILE GLN GLY TYR          
   5 C  283  ARG ALA ASN GLU ARG PHE ALA MET CYS SER THR PHE LYS          
   6 C  283  LEU PRO LEU ALA ALA LEU VAL LEU SER ARG ILE ASP ALA          
   7 C  283  GLY GLU GLU ASN PRO GLU ARG LYS LEU HIS TYR ASP SER          
   8 C  283  ALA PHE LEU GLU GLU TYR ALA PRO ALA ALA LYS ARG TYR          
   9 C  283  VAL ALA THR GLY TYR MET THR VAL THR GLU ALA ILE GLN          
  10 C  283  SER ALA LEU GLN LEU SER ASP ASN ALA ALA ALA ASN LEU          
  11 C  283  LEU LEU LYS GLU VAL GLY GLY PRO PRO LEU LEU THR LYS          
  12 C  283  TYR PHE ARG SER LEU GLY ASP LYS VAL SER ARG LEU ASP          
  13 C  283  ARG ILE GLU PRO THR LEU ASN THR ASN THR PRO GLY ASP          
  14 C  283  GLU ARG ASP THR THR THR PRO MET SER MET ALA GLN THR          
  15 C  283  VAL SER LYS LEU ILE PHE GLY ASP THR LEU THR TYR LYS          
  16 C  283  SER LYS GLY GLN LEU ARG ARG LEU LEU ILE GLY ASN GLN          
  17 C  283  THR GLY ASP LYS THR ILE ARG ALA GLY LEU PRO ASP SER          
  18 C  283  TRP VAL THR GLY ASP LYS THR GLY SER CYS ALA ASN GLY          
  19 C  283  GLY ARG ASN ASP VAL ALA PHE PHE ILE THR THR ALA GLY          
  20 C  283  LYS LYS TYR VAL LEU SER VAL TYR THR ASN ALA PRO GLU          
  21 C  283  LEU GLN GLY GLU GLU ARG ALA LEU LEU ILE ALA SER VAL          
  22 C  283  ALA LYS LEU ALA ARG GLN TYR VAL VAL HIS                      
   1 D  283  MET LYS LEU LEU LEU TYR PRO LEU LEU LEU PHE LEU VAL          
   2 D  283  ILE PRO ALA PHE ALA GLN ALA ASP PHE GLU HIS ALA ILE          
   3 D  283  SER ASP LEU GLU ALA HIS ASN GLN ALA LYS ILE GLY VAL          
   4 D  283  ALA LEU VAL SER GLU ASN GLY ASN LEU ILE GLN GLY TYR          
   5 D  283  ARG ALA ASN GLU ARG PHE ALA MET CYS SER THR PHE LYS          
   6 D  283  LEU PRO LEU ALA ALA LEU VAL LEU SER ARG ILE ASP ALA          
   7 D  283  GLY GLU GLU ASN PRO GLU ARG LYS LEU HIS TYR ASP SER          
   8 D  283  ALA PHE LEU GLU GLU TYR ALA PRO ALA ALA LYS ARG TYR          
   9 D  283  VAL ALA THR GLY TYR MET THR VAL THR GLU ALA ILE GLN          
  10 D  283  SER ALA LEU GLN LEU SER ASP ASN ALA ALA ALA ASN LEU          
  11 D  283  LEU LEU LYS GLU VAL GLY GLY PRO PRO LEU LEU THR LYS          
  12 D  283  TYR PHE ARG SER LEU GLY ASP LYS VAL SER ARG LEU ASP          
  13 D  283  ARG ILE GLU PRO THR LEU ASN THR ASN THR PRO GLY ASP          
  14 D  283  GLU ARG ASP THR THR THR PRO MET SER MET ALA GLN THR          
  15 D  283  VAL SER LYS LEU ILE PHE GLY ASP THR LEU THR TYR LYS          
  16 D  283  SER LYS GLY GLN LEU ARG ARG LEU LEU ILE GLY ASN GLN          
  17 D  283  THR GLY ASP LYS THR ILE ARG ALA GLY LEU PRO ASP SER          
  18 D  283  TRP VAL THR GLY ASP LYS THR GLY SER CYS ALA ASN GLY          
  19 D  283  GLY ARG ASN ASP VAL ALA PHE PHE ILE THR THR ALA GLY          
  20 D  283  LYS LYS TYR VAL LEU SER VAL TYR THR ASN ALA PRO GLU          
  21 D  283  LEU GLN GLY GLU GLU ARG ALA LEU LEU ILE ALA SER VAL          
  22 D  283  ALA LYS LEU ALA ARG GLN TYR VAL VAL HIS                      

>  <HET>
 IM2  A 300      20                                                       
  CL  A 301       1                                                       
 IM2  B 300      20                                                       
  CL  B 301       1                                                       
 IM2  C 300      20                                                       
  CL  C 301       1                                                       
 IM2  D 300      20                                                       
  CL  D 301       1                                                       

>  <HETNAM>
     IM2 (5R)-5-[(1S,2R)-1-FORMYL-2-HYDROXYPROPYL]-3-[(2-{[(E)-           
   2 IM2  IMINOMETHYL]AMINO}ETHYL)SULFANYL]-4,5-DIHYDRO-1H-               
   3 IM2  PYRROLE-2-CARBOXYLIC ACID                                       
      CL CHLORIDE ION                                                     

>  <HETSYN>
     IM2 IMIPENEM, OPEN FORM; N-FORMIMIDOYL-THIENAMYCINE, OPEN            
   2 IM2  FORM                                                            

>  <FORMUL>
   5  IM2    4(C12 H19 N3 O4 S)                                           
   6   CL    4(CL 1-)                                                     
  13  HOH   *719(H2 O)                                                    

>  <HELIX>
   1   1 ASP A   21  GLN A   34  1                                  14    
   2   2 PHE A   64  ALA A   78  1                                  15    
   3   3 ASP A   90  LEU A   94  5                                   5    
   4   4 ALA A   98  VAL A  105  1                                   8    
   5   5 VAL A  112  LEU A  122  1                                  11    
   6   6 ASP A  124  GLY A  136  1                                  13    
   7   7 GLY A  137  LEU A  148  1                                  12    
   8   8 PRO A  160  THR A  164  5                                   5    
   9   9 THR A  175  GLY A  189  1                                  15    
  10  10 THR A  193  GLY A  206  1                                  14    
  11  11 THR A  213  LEU A  218  5                                   6    
  12  12 GLN A  262  ARG A  278  1                                  17    
  13  13 GLN A  279  VAL A  281  5                                   3    
  14  14 PHE B   22  GLN B   34  1                                  13    
  15  15 PHE B   64  ALA B   78  1                                  15    
  16  16 ASP B   90  LEU B   94  5                                   5    
  17  17 ALA B   98  VAL B  105  1                                   8    
  18  18 VAL B  112  LEU B  122  1                                  11    
  19  19 ASP B  124  GLY B  136  1                                  13    
  20  20 GLY B  137  LEU B  148  1                                  12    
  21  21 THR B  175  PHE B  188  1                                  14    
  22  22 THR B  193  GLY B  206  1                                  14    
  23  23 THR B  213  LEU B  218  5                                   6    
  24  24 GLN B  262  GLN B  279  1                                  18    
  25  25 PHE C   22  GLN C   34  1                                  13    
  26  26 PHE C   64  ALA C   78  1                                  15    
  27  27 ASP C   90  LEU C   94  5                                   5    
  28  28 ALA C   98  VAL C  105  1                                   8    
  29  29 VAL C  112  LEU C  122  1                                  11    
  30  30 ASP C  124  GLY C  136  1                                  13    
  31  31 GLY C  137  LEU C  148  1                                  12    
  32  32 PRO C  160  THR C  164  5                                   5    
  33  33 THR C  175  GLY C  189  1                                  15    
  34  34 THR C  193  GLY C  206  1                                  14    
  35  35 THR C  213  LEU C  218  5                                   6    
  36  36 GLN C  262  GLN C  279  1                                  18    
  37  37 PHE D   22  GLN D   34  1                                  13    
  38  38 PHE D   64  ALA D   78  1                                  15    
  39  39 ASP D   90  LEU D   94  5                                   5    
  40  40 ALA D   98  VAL D  105  1                                   8    
  41  41 VAL D  112  LEU D  122  1                                  11    
  42  42 ASP D  124  GLY D  136  1                                  13    
  43  43 GLY D  137  LEU D  148  1                                  12    
  44  44 THR D  166  ARG D  171  5                                   6    
  45  45 THR D  175  GLY D  189  1                                  15    
  46  46 THR D  193  GLY D  206  1                                  14    
  47  47 THR D  213  LEU D  218  5                                   6    
  48  48 GLN D  262  GLN D  279  1                                  18    

>  <SHEET>
   1   A 5 LEU A  48  TYR A  52  0                                        
   2   A 5 LYS A  36  SER A  43 -1  N  LEU A  41   O  ILE A  49           
   3   A 5 LYS A 249  ASN A 257 -1  O  TYR A 255   N  GLY A  38           
   4   A 5 GLY A 235  ILE A 243 -1  N  ALA A 240   O  LEU A 252           
   5   A 5 VAL A 223  CYS A 231 -1  N  GLY A 229   O  ASN A 237           
   1   B 2 PHE A  58  ALA A  59  0                                        
   2   B 2 THR A 173  THR A 174 -1  O  THR A 174   N  PHE A  58           
   1   C 2 LYS A  86  HIS A  88  0                                        
   2   C 2 TYR A 109  THR A 111 -1  O  MET A 110   N  LEU A  87           
   1   D 5 LEU B  48  TYR B  52  0                                        
   2   D 5 LYS B  36  SER B  43 -1  N  LEU B  41   O  ILE B  49           
   3   D 5 LYS B 249  ASN B 257 -1  O  TYR B 255   N  GLY B  38           
   4   D 5 GLY B 235  ILE B 243 -1  N  ALA B 240   O  LEU B 252           
   5   D 5 VAL B 223  CYS B 231 -1  N  GLY B 229   O  ASN B 237           
   1   E 2 PHE B  58  ALA B  59  0                                        
   2   E 2 THR B 173  THR B 174 -1  O  THR B 174   N  PHE B  58           
   1   F 2 LYS B  86  HIS B  88  0                                        
   2   F 2 TYR B 109  THR B 111 -1  O  MET B 110   N  LEU B  87           
   1   G 5 LEU C  48  TYR C  52  0                                        
   2   G 5 LYS C  36  SER C  43 -1  N  LEU C  41   O  ILE C  49           
   3   G 5 LYS C 249  ASN C 257 -1  O  TYR C 255   N  GLY C  38           
   4   G 5 GLY C 235  ILE C 243 -1  N  ALA C 240   O  LEU C 252           
   5   G 5 VAL C 223  CYS C 231 -1  N  GLY C 229   O  ASN C 237           
   1   H 2 PHE C  58  ALA C  59  0                                        
   2   H 2 THR C 173  THR C 174 -1  O  THR C 174   N  PHE C  58           
   1   I 2 LYS C  86  HIS C  88  0                                        
   2   I 2 TYR C 109  THR C 111 -1  O  MET C 110   N  LEU C  87           
   1   J 5 LEU D  48  TYR D  52  0                                        
   2   J 5 LYS D  36  SER D  43 -1  N  LEU D  41   O  ILE D  49           
   3   J 5 LYS D 249  ASN D 257 -1  O  TYR D 255   N  GLY D  38           
   4   J 5 GLY D 235  ILE D 243 -1  N  ALA D 240   O  LEU D 252           
   5   J 5 VAL D 223  CYS D 231 -1  N  GLY D 229   O  ASN D 237           
   1   K 2 PHE D  58  ALA D  59  0                                        
   2   K 2 THR D 173  THR D 174 -1  O  THR D 174   N  PHE D  58           
   1   L 2 LYS D  86  HIS D  88  0                                        
   2   L 2 TYR D 109  THR D 111 -1  O  MET D 110   N  LEU D  87           

>  <SSBOND>
   1 CYS A   61    CYS A  231                          1555   1555  2.02  
   2 CYS B   61    CYS B  231                          1555   1555  2.01  
   3 CYS C   61    CYS C  231                          1555   1555  2.04  
   4 CYS D   61    CYS D  231                          1555   1555  2.01  

>  <LINK>
       OG  SER A  62                 C7  IM2 A 300     1555   1555  1.48  
       OG  SER B  62                 C7  IM2 B 300     1555   1555  1.59  
       OG  SER C  62                 C7  IM2 C 300     1555   1555  1.56  
       OG  SER D  62                 C7  IM2 D 300     1555   1555  1.55  

>  <CISPEP>
   1 GLU A  159    PRO A  160          0        -6.35                     

>  <SITE>
   1 AC1 12 CYS A  61  SER A  62  LYS A  65  TYR A  97                    
   2 AC1 12 SER A 123  ASN A 125  GLU A 159  THR A 209                    
   3 AC1 12 THR A 228  GLY A 229  SER A 230  HOH A 590                    
   1 AC2  6 MET A  60  CYS A  61  SER A  62  THR A  63                    
   2 AC2  6 CYS A 231  ASN A 237                                          
   1 AC3 11 CYS B  61  SER B  62  LYS B  65  TYR B  97                    
   2 AC3 11 SER B 123  ASN B 125  THR B 209  THR B 228                    
   3 AC3 11 GLY B 229  SER B 230  HOH B 413                               
   1 AC4  4 CYS B  61  SER B  62  THR B  63  ASN B 237                    
   1 AC5 11 CYS C  61  SER C  62  LYS C  65  SER C 123                    
   2 AC5 11 ASN C 125  THR C 209  THR C 228  GLY C 229                    
   3 AC5 11 SER C 230  HOH C 427  HOH C 485                               
   1 AC6  5 MET C  60  CYS C  61  SER C  62  THR C  63                    
   2 AC6  5 ASN C 237                                                     
   1 AC7 13 CYS D  61  SER D  62  LYS D  65  TYR D  97                    
   2 AC7 13 SER D 123  ASN D 125  THR D 209  THR D 228                    
   3 AC7 13 GLY D 229  SER D 230  HOH D 430  HOH D 555                    
   4 AC7 13 HOH D 557                                                     
   1 AC8  4 CYS D  61  SER D  62  THR D  63  ASN D 237                    

>  <ORIGX1>
      1.000000  0.000000  0.000000        0.00000                         

>  <ORIGX2>
      0.000000  1.000000  0.000000        0.00000                         

>  <ORIGX3>
      0.000000  0.000000  1.000000        0.00000                         

>  <SCALE1>
      0.018525  0.000000  0.000637        0.00000                         

>  <SCALE2>
      0.000000  0.010432  0.000000        0.00000                         

>  <SCALE3>
      0.000000  0.000000  0.009675        0.00000                         

>  <MASTER>
      435    0    8   48   36    0   19    6 8807    4   92   88          

$$$$
