start_structures/Ligand_Substrate/Ligand_Complex_Stripped/IPP_1BLS.pdb
 OpenBabel08222315203D

 31 36  0  0  1  0  0  0  0  0999 V2000
   21.7570   51.9410   23.7220 N   0  0  0  0  0  0  0  0  0  0  0  0
   22.7740   52.1240   22.6920 C   0  0  2  0  0  0  0  0  0  0  0  0
   23.7590   50.9960   22.5230 C   0  0  0  0  0  0  0  0  0  0  0  0
   24.4860   51.0120   21.4960 O   0  0  0  0  0  0  0  0  0  0  0  0
   23.4460   53.4900   22.8070 C   0  0  0  0  0  0  0  0  0  0  0  0
   22.4720   54.5110   23.0150 O   0  0  0  0  0  0  0  0  0  0  0  0
   22.4530   55.6230   24.2260 P   0  0  2  0  0  0  0  0  0  0  0  0
   23.8480   56.2670   24.4800 O   0  0  0  0  0  0  0  0  0  0  0  0
   22.4010   54.4780   25.2740 O   0  0  0  0  0  0  0  0  0  0  0  0
   21.1770   56.4470   24.5370 C   0  0  0  0  0  0  0  0  0  0  0  0
   19.8590   55.9980   24.4500 N   0  0  0  0  0  0  0  0  0  0  0  0
   18.9000   56.2120   23.6110 C   0  0  2  0  0  0  0  0  0  0  0  0
   19.1500   55.6590   23.4180 C   0  0  1  0  0  0  0  0  0  0  0  0
   18.9150   57.1280   22.7680 O   0  0  0  0  0  0  0  0  0  0  0  0
   19.5290   55.8390   22.2460 O   0  0  0  0  0  0  0  0  0  0  0  0
   17.5730   55.9230   23.4070 C   0  0  1  0  0  0  0  0  0  0  0  0
   17.8340   55.2320   23.1190 C   0  0  1  0  0  0  0  0  0  0  0  0
   16.4260   56.4030   24.2760 C   0  0  0  0  0  0  0  0  0  0  0  0
   16.6210   56.0980   22.8310 C   0  0  0  0  0  0  0  0  0  0  0  0
   16.4040   57.6820   24.8240 C   0  0  0  0  0  0  0  0  0  0  0  0
   16.6640   57.4840   22.9450 C   0  0  0  0  0  0  0  0  0  0  0  0
   15.3290   58.1240   25.5950 C   0  0  0  0  0  0  0  0  0  0  0  0
   15.5550   58.2730   22.6390 C   0  0  0  0  0  0  0  0  0  0  0  0
   14.2730   57.2400   25.8350 C   0  0  0  0  0  0  0  0  0  0  0  0
   14.3950   57.6430   22.1780 C   0  0  0  0  0  0  0  0  0  0  0  0
   12.6950   57.9960   26.9890 I   0  0  0  0  0  0  0  0  0  0  0  0
   12.7900   58.9100   21.7210 I   0  0  0  0  0  0  0  0  0  0  0  0
   14.2730   55.9580   25.3080 C   0  0  0  0  0  0  0  0  0  0  0  0
   14.3200   56.2620   22.0710 C   0  0  0  0  0  0  0  0  0  0  0  0
   15.3640   55.5290   24.5340 C   0  0  0  0  0  0  0  0  0  0  0  0
   15.4340   55.4820   22.4220 C   0  0  0  0  0  0  0  0  0  0  0  0
  2  5  1  0  0  0  0
  2  1  1  1  0  0  0
  3  2  1  0  0  0  0
  4  3  2  0  0  0  0
  5  6  1  0  0  0  0
  6  7  1  0  0  0  0
  7  8  2  1  0  0  0
  7  9  1  0  0  0  0
  7 10  1  0  0  0  0
 10 11  1  0  0  0  0
 11 12  1  0  0  0  0
 11 13  1  0  0  0  0
 12 14  1  6  0  0  0
 12 16  1  0  0  0  0
 13 15  1  6  0  0  0
 13 17  1  0  0  0  0
 13 12  1  0  0  0  0
 15 14  1  0  0  0  0
 16 18  1  1  0  0  0
 17 19  1  6  0  0  0
 17 16  1  0  0  0  0
 18 20  2  0  0  0  0
 18 30  1  0  0  0  0
 19 21  2  0  0  0  0
 19 31  1  0  0  0  0
 20 22  1  0  0  0  0
 21 23  1  0  0  0  0
 21 20  1  0  0  0  0
 22 24  2  0  0  0  0
 23 25  2  0  0  0  0
 24 26  1  0  0  0  0
 24 28  1  0  0  0  0
 25 27  1  0  0  0  0
 25 29  1  0  0  0  0
 28 30  2  0  0  0  0
 29 31  2  0  0  0  0
M  END
>  <HEADER>
    HYDROLASE (ACTING IN CYCLIC AMIDES)     17-DEC-93   1BLS              

>  <TITLE>
    CRYSTALLOGRAPHIC STRUCTURE OF A PHOSPHONATE DERIVATIVE OF             
   2 THE ENTEROBACTER CLOACAE P99 CEPHALOSPORINASE: MECHANISTIC           
   3 INTERPRETATION OF A BETA-LACTAMASE TRANSITION STATE ANALOG           

>  <COMPND>
    MOL_ID: 1;                                                            
   2 MOLECULE: BETA-LACTAMASE;                                            
   3 CHAIN: A, B;                                                         
   4 EC: 3.5.2.6;                                                         
   5 ENGINEERED: YES                                                      

>  <SOURCE>
    MOL_ID: 1;                                                            
   2 ORGANISM_SCIENTIFIC: ENTEROBACTER CLOACAE;                           
   3 ORGANISM_TAXID: 550                                                  

>  <KEYWDS>
    HYDROLASE (ACTING IN CYCLIC AMIDES)                                   

>  <EXPDTA>
    X-RAY DIFFRACTION                                                     

>  <AUTHOR>
    J.R.KNOX,P.C.MOEWS,E.LOBKOVSKY                                        

>  <REVDAT>
   2   24-FEB-09 1BLS    1       VERSN                                    
   1   08-MAY-95 1BLS    0                                                

>  <JRNL>
      AUTH   E.LOBKOVSKY,E.M.BILLINGS,P.C.MOEWS,J.RAHIL,                  
      AUTH 2 R.F.PRATT,J.R.KNOX                                           
      TITL   CRYSTALLOGRAPHIC STRUCTURE OF A PHOSPHONATE                  
      TITL 2 DERIVATIVE OF THE ENTEROBACTER CLOACAE P99                   
      TITL 3 CEPHALOSPORINASE: MECHANISTIC INTERPRETATION OF A            
      TITL 4 BETA-LACTAMASE TRANSITION-STATE ANALOG.                      
      REF    BIOCHEMISTRY                  V.  33  6762 1994              
      REFN                   ISSN 0006-2960                               
      PMID   8204611                                                      
      DOI    10.1021/BI00188A004                                          

>  <REMARK>
   1                                                                      
   1 REFERENCE 1                                                          
   1  AUTH   E.LOBKOVSKY,P.C.MOEWS,H.LIU,H.ZHAO,J.M.FRERE,                
   1  AUTH 2 J.R.KNOX                                                     
   1  TITL   EVOLUTION OF AN ENZYME ACTIVITY: CRYSTALLOGRAPHIC            
   1  TITL 2 STRUCTURE AT 2 ANGSTROMS RESOLUTION OF THE                   
   1  TITL 3 CEPHALOSPORINASE FROM THE AMPC GENE OF                       
   1  TITL 4 ENTEROBACTER CLOACAE P99 AND COMPARISON WITH A               
   1  TITL 5 CLASS A PENICILLINASE                                        
   1  REF    PROC.NATL.ACAD.SCI.USA        V.  90 11257 1993              
   1  REFN                   ISSN 0027-8424                               
   2                                                                      
   2 RESOLUTION.    2.30 ANGSTROMS.                                       
   3                                                                      
   3 REFINEMENT.                                                          
   3   PROGRAM     : PROLSQ                                               
   3   AUTHORS     : KONNERT,HENDRICKSON                                  
   3                                                                      
   3  DATA USED IN REFINEMENT.                                            
   3   RESOLUTION RANGE HIGH (ANGSTROMS) : 2.30                           
   3   RESOLUTION RANGE LOW  (ANGSTROMS) : 8.00                           
   3   DATA CUTOFF            (SIGMA(F)) : NULL                           
   3   COMPLETENESS FOR RANGE        (%) : NULL                           
   3   NUMBER OF REFLECTIONS             : 27532                          
   3                                                                      
   3  FIT TO DATA USED IN REFINEMENT.                                     
   3   CROSS-VALIDATION METHOD          : NULL                            
   3   FREE R VALUE TEST SET SELECTION  : NULL                            
   3   R VALUE     (WORKING + TEST SET) : 0.192                           
   3   R VALUE            (WORKING SET) : NULL                            
   3   FREE R VALUE                     : NULL                            
   3   FREE R VALUE TEST SET SIZE   (%) : NULL                            
   3   FREE R VALUE TEST SET COUNT      : NULL                            
   3                                                                      
   3  FIT/AGREEMENT OF MODEL WITH ALL DATA.                               
   3   R VALUE   (WORKING + TEST SET, NO CUTOFF) : NULL                   
   3   R VALUE          (WORKING SET, NO CUTOFF) : NULL                   
   3   FREE R VALUE                  (NO CUTOFF) : NULL                   
   3   FREE R VALUE TEST SET SIZE (%, NO CUTOFF) : NULL                   
   3   FREE R VALUE TEST SET COUNT   (NO CUTOFF) : NULL                   
   3   TOTAL NUMBER OF REFLECTIONS   (NO CUTOFF) : NULL                   
   3                                                                      
   3  NUMBER OF NON-HYDROGEN ATOMS USED IN REFINEMENT.                    
   3   PROTEIN ATOMS            : 5502                                    
   3   NUCLEIC ACID ATOMS       : 0                                       
   3   HETEROGEN ATOMS          : 50                                      
   3   SOLVENT ATOMS            : 789                                     
   3                                                                      
   3  B VALUES.                                                           
   3   FROM WILSON PLOT           (A**2) : NULL                           
   3   MEAN B VALUE      (OVERALL, A**2) : NULL                           
   3   OVERALL ANISOTROPIC B VALUE.                                       
   3    B11 (A**2) : NULL                                                 
   3    B22 (A**2) : NULL                                                 
   3    B33 (A**2) : NULL                                                 
   3    B12 (A**2) : NULL                                                 
   3    B13 (A**2) : NULL                                                 
   3    B23 (A**2) : NULL                                                 
   3                                                                      
   3  ESTIMATED COORDINATE ERROR.                                         
   3   ESD FROM LUZZATI PLOT        (A) : NULL                            
   3   ESD FROM SIGMAA              (A) : NULL                            
   3   LOW RESOLUTION CUTOFF        (A) : NULL                            
   3                                                                      
   3  RMS DEVIATIONS FROM IDEAL VALUES.                                   
   3   DISTANCE RESTRAINTS.                    RMS    SIGMA               
   3    BOND LENGTH                     (A) : 0.010 ; NULL                
   3    ANGLE DISTANCE                  (A) : 1.100 ; NULL                
   3    INTRAPLANAR 1-4 DISTANCE        (A) : NULL  ; NULL                
   3    H-BOND OR METAL COORDINATION    (A) : NULL  ; NULL                
   3                                                                      
   3   PLANE RESTRAINT                  (A) : NULL  ; NULL                
   3   CHIRAL-CENTER RESTRAINT       (A**3) : NULL  ; NULL                
   3                                                                      
   3   NON-BONDED CONTACT RESTRAINTS.                                     
   3    SINGLE TORSION                  (A) : NULL  ; NULL                
   3    MULTIPLE TORSION                (A) : NULL  ; NULL                
   3    H-BOND (X...Y)                  (A) : NULL  ; NULL                
   3    H-BOND (X-H...Y)                (A) : NULL  ; NULL                
   3                                                                      
   3   CONFORMATIONAL TORSION ANGLE RESTRAINTS.                           
   3    SPECIFIED                 (DEGREES) : NULL  ; NULL                
   3    PLANAR                    (DEGREES) : NULL  ; NULL                
   3    STAGGERED                 (DEGREES) : NULL  ; NULL                
   3    TRANSVERSE                (DEGREES) : NULL  ; NULL                
   3                                                                      
   3  ISOTROPIC THERMAL FACTOR RESTRAINTS.    RMS    SIGMA                
   3   MAIN-CHAIN BOND               (A**2) : NULL  ; NULL                
   3   MAIN-CHAIN ANGLE              (A**2) : NULL  ; NULL                
   3   SIDE-CHAIN BOND               (A**2) : NULL  ; NULL                
   3   SIDE-CHAIN ANGLE              (A**2) : NULL  ; NULL                
   3                                                                      
   3  OTHER REFINEMENT REMARKS: NULL                                      
   4                                                                      
   4 1BLS COMPLIES WITH FORMAT V. 3.15, 01-DEC-08                         
 100                                                                      
 100 THIS ENTRY HAS BEEN PROCESSED BY BNL.                                
 200                                                                      
 200 EXPERIMENTAL DETAILS                                                 
 200  EXPERIMENT TYPE                : X-RAY DIFFRACTION                  
 200  DATE OF DATA COLLECTION        : NULL                               
 200  TEMPERATURE           (KELVIN) : NULL                               
 200  PH                             : NULL                               
 200  NUMBER OF CRYSTALS USED        : NULL                               
 200                                                                      
 200  SYNCHROTRON              (Y/N) : NULL                               
 200  RADIATION SOURCE               : NULL                               
 200  BEAMLINE                       : NULL                               
 200  X-RAY GENERATOR MODEL          : NULL                               
 200  MONOCHROMATIC OR LAUE    (M/L) : NULL                               
 200  WAVELENGTH OR RANGE        (A) : NULL                               
 200  MONOCHROMATOR                  : NULL                               
 200  OPTICS                         : NULL                               
 200                                                                      
 200  DETECTOR TYPE                  : NULL                               
 200  DETECTOR MANUFACTURER          : NULL                               
 200  INTENSITY-INTEGRATION SOFTWARE : NULL                               
 200  DATA SCALING SOFTWARE          : NULL                               
 200                                                                      
 200  NUMBER OF UNIQUE REFLECTIONS   : NULL                               
 200  RESOLUTION RANGE HIGH      (A) : NULL                               
 200  RESOLUTION RANGE LOW       (A) : NULL                               
 200  REJECTION CRITERIA  (SIGMA(I)) : NULL                               
 200                                                                      
 200 OVERALL.                                                             
 200  COMPLETENESS FOR RANGE     (%) : NULL                               
 200  DATA REDUNDANCY                : NULL                               
 200  R MERGE                    (I) : NULL                               
 200  R SYM                      (I) : NULL                               
 200  <I/SIGMA(I)> FOR THE DATA SET  : NULL                               
 200                                                                      
 200 IN THE HIGHEST RESOLUTION SHELL.                                     
 200  HIGHEST RESOLUTION SHELL, RANGE HIGH (A) : NULL                     
 200  HIGHEST RESOLUTION SHELL, RANGE LOW  (A) : NULL                     
 200  COMPLETENESS FOR SHELL     (%) : NULL                               
 200  DATA REDUNDANCY IN SHELL       : NULL                               
 200  R MERGE FOR SHELL          (I) : NULL                               
 200  R SYM FOR SHELL            (I) : NULL                               
 200  <I/SIGMA(I)> FOR SHELL         : NULL                               
 200                                                                      
 200 DIFFRACTION PROTOCOL: NULL                                           
 200 METHOD USED TO DETERMINE THE STRUCTURE: NULL                         
 200 SOFTWARE USED: NULL                                                  
 200 STARTING MODEL: NULL                                                 
 200                                                                      
 200 REMARK: NULL                                                         
 280                                                                      
 280 CRYSTAL                                                              
 280 SOLVENT CONTENT, VS   (%): 47.82                                     
 280 MATTHEWS COEFFICIENT, VM (ANGSTROMS**3/DA): 2.36                     
 280                                                                      
 280 CRYSTALLIZATION CONDITIONS: NULL                                     
 290                                                                      
 290 CRYSTALLOGRAPHIC SYMMETRY                                            
 290 SYMMETRY OPERATORS FOR SPACE GROUP: P 1 21 1                         
 290                                                                      
 290      SYMOP   SYMMETRY                                                
 290     NNNMMM   OPERATOR                                                
 290       1555   X,Y,Z                                                   
 290       2555   -X,Y+1/2,-Z                                             
 290                                                                      
 290     WHERE NNN -> OPERATOR NUMBER                                     
 290           MMM -> TRANSLATION VECTOR                                  
 290                                                                      
 290 CRYSTALLOGRAPHIC SYMMETRY TRANSFORMATIONS                            
 290 THE FOLLOWING TRANSFORMATIONS OPERATE ON THE ATOM/HETATM             
 290 RECORDS IN THIS ENTRY TO PRODUCE CRYSTALLOGRAPHICALLY                
 290 RELATED MOLECULES.                                                   
 290   SMTRY1   1  1.000000  0.000000  0.000000        0.00000            
 290   SMTRY2   1  0.000000  1.000000  0.000000        0.00000            
 290   SMTRY3   1  0.000000  0.000000  1.000000        0.00000            
 290   SMTRY1   2 -1.000000  0.000000  0.000000        0.00000            
 290   SMTRY2   2  0.000000  1.000000  0.000000       41.73500            
 290   SMTRY3   2  0.000000  0.000000 -1.000000        0.00000            
 290                                                                      
 290 REMARK: NULL                                                         
 300                                                                      
 300 BIOMOLECULE: 1, 2                                                    
 300 SEE REMARK 350 FOR THE AUTHOR PROVIDED AND/OR PROGRAM                
 300 GENERATED ASSEMBLY INFORMATION FOR THE STRUCTURE IN                  
 300 THIS ENTRY. THE REMARK MAY ALSO PROVIDE INFORMATION ON               
 300 BURIED SURFACE AREA.                                                 
 300 REMARK:                                                              
 300 THE *MTRIX* RECORDS BELOW MAY BE USED TO GENERATE                    
 300 APPROXIMATE COORDINATES OF MOLECULE B WHEN APPLIED TO                
 300 MOLECULE A.                                                          
 350                                                                      
 350 COORDINATES FOR A COMPLETE MULTIMER REPRESENTING THE KNOWN           
 350 BIOLOGICALLY SIGNIFICANT OLIGOMERIZATION STATE OF THE                
 350 MOLECULE CAN BE GENERATED BY APPLYING BIOMT TRANSFORMATIONS          
 350 GIVEN BELOW.  BOTH NON-CRYSTALLOGRAPHIC AND                          
 350 CRYSTALLOGRAPHIC OPERATIONS ARE GIVEN.                               
 350                                                                      
 350 BIOMOLECULE: 1                                                       
 350 AUTHOR DETERMINED BIOLOGICAL UNIT: MONOMERIC                         
 350 APPLY THE FOLLOWING TO CHAINS: A                                     
 350   BIOMT1   1  1.000000  0.000000  0.000000        0.00000            
 350   BIOMT2   1  0.000000  1.000000  0.000000        0.00000            
 350   BIOMT3   1  0.000000  0.000000  1.000000        0.00000            
 350                                                                      
 350 BIOMOLECULE: 2                                                       
 350 AUTHOR DETERMINED BIOLOGICAL UNIT: MONOMERIC                         
 350 APPLY THE FOLLOWING TO CHAINS: B                                     
 350   BIOMT1   1  1.000000  0.000000  0.000000        0.00000            
 350   BIOMT2   1  0.000000  1.000000  0.000000        0.00000            
 350   BIOMT3   1  0.000000  0.000000  1.000000        0.00000            
 400                                                                      
 400 COMPOUND                                                             
 400                                                                      
 400 TURN INFORMATION IS EASILY OBTAINED USING THE DSSP                   
 400 ANALYSIS PROGRAM BY KABSCH AND SANDER, BIOPOLYMERS 22,               
 400 2577 (1983).                                                         
 465                                                                      
 465 MISSING RESIDUES                                                     
 465 THE FOLLOWING RESIDUES WERE NOT LOCATED IN THE                       
 465 EXPERIMENT. (M=MODEL NUMBER; RES=RESIDUE NAME; C=CHAIN               
 465 IDENTIFIER; SSSEQ=SEQUENCE NUMBER; I=INSERTION CODE.)                
 465                                                                      
 465   M RES C SSSEQI                                                     
 465     THR A     1                                                      
 465     GLN A   361                                                      
 465     THR B     1                                                      
 465     GLN B   361                                                      
 500                                                                      
 500 GEOMETRY AND STEREOCHEMISTRY                                         
 500 SUBTOPIC: CLOSE CONTACTS IN SAME ASYMMETRIC UNIT                     
 500                                                                      
 500 THE FOLLOWING ATOMS ARE IN CLOSE CONTACT.                            
 500                                                                      
 500  ATM1  RES C  SSEQI   ATM2  RES C  SSEQI           DISTANCE          
 500   O    HOH A   436     O    HOH A   597              1.65            
 500   O    HOH B   417     O    HOH B   541              1.72            
 500   O    HOH A   432     O    HOH A   487              1.90            
 500   O    HOH B   425     O    HOH B   443              1.92            
 500   O    HOH A   480     O    HOH A   537              1.96            
 500   O    HOH A   531     O    HOH A   617              2.01            
 500   O    HOH A   556     O    HOH A   639              2.01            
 500   CG   LYS A   143     O    HOH A   410              2.03            
 500   O    HOH B   499     O    HOH B   678              2.05            
 500   O    HOH B   465     O    HOH B   473              2.06            
 500   O    HOH B   558     O    HOH B   745              2.06            
 500   NH1  ARG B   133     O    HOH B   646              2.09            
 500   O    HOH A   530     O    HOH A   607              2.11            
 500   O    HOH A   435     O    HOH A   544              2.11            
 500   O    GLU A    61     O    HOH A   589              2.14            
 500   O    HOH B   391     O    HOH B   442              2.15            
 500   O    HOH A   545     O    HOH A   552              2.15            
 500   OG   SER A   324     O    HOH A   589              2.16            
 500   OG1  THR B   126     O    HOH B   732              2.16            
 500   O    HOH B   482     O    HOH B   642              2.16            
 500   OE1  GLU B    82     O    HOH B   379              2.17            
 500   OG1  THR B    97     O    HOH B   459              2.17            
 500   OD1  ASN A    14     O    HOH A   623              2.17            
 500   OE2  GLU B   241     O    HOH B   644              2.17            
 500   OH   TYR A    40     O    HOH A   471              2.17            
 500   O    HOH B   406     O    HOH B   473              2.17            
 500   O    HOH A   497     O    HOH A   591              2.17            
 500   O    HOH A   433     O    HOH A   536              2.18            
 500   OE2  GLU B   171     O    HOH B   410              2.18            
 500   O    HOH B   480     O    HOH B   539              2.19            
 500   O    HOH A   418     O    HOH A   603              2.19            
 500   OE1  GLU B   358     O    HOH B   733              2.19            
 500                                                                      
 500 REMARK: NULL                                                         
 500                                                                      
 500 GEOMETRY AND STEREOCHEMISTRY                                         
 500 SUBTOPIC: CLOSE CONTACTS                                             
 500                                                                      
 500 THE FOLLOWING ATOMS THAT ARE RELATED BY CRYSTALLOGRAPHIC             
 500 SYMMETRY ARE IN CLOSE CONTACT.  AN ATOM LOCATED WITHIN 0.15          
 500 ANGSTROMS OF A SYMMETRY RELATED ATOM IS ASSUMED TO BE ON A           
 500 SPECIAL POSITION AND IS, THEREFORE, LISTED IN REMARK 375             
 500 INSTEAD OF REMARK 500.  ATOMS WITH NON-BLANK ALTERNATE               
 500 LOCATION INDICATORS ARE NOT INCLUDED IN THE CALCULATIONS.            
 500                                                                      
 500 DISTANCE CUTOFF:                                                     
 500 2.2 ANGSTROMS FOR CONTACTS NOT INVOLVING HYDROGEN ATOMS              
 500 1.6 ANGSTROMS FOR CONTACTS INVOLVING HYDROGEN ATOMS                  
 500                                                                      
 500  ATM1  RES C  SSEQI   ATM2  RES C  SSEQI  SSYMOP   DISTANCE          
 500   O    HOH B   542     O    HOH B   577     1455     1.73            
 500   O    HOH A   507     O    HOH B   436     2655     1.89            
 500   CG   PRO A   277     O    HOH A   678     1655     1.90            
 500   NZ   LYS A   164     CG   PRO B   303     2555     1.96            
 500   CD   PRO A   277     O    HOH A   678     1655     2.03            
 500   NZ   LYS A   143     CD   LYS B   143     1665     2.06            
 500   O    HOH A   399     O    HOH B   654     1665     2.08            
 500   O    HOH A   472     O    HOH B   471     1665     2.14            
 500   NZ   LYS A   164     CB   PRO B   303     2555     2.17            
 500                                                                      
 500 REMARK: NULL                                                         
 500                                                                      
 500 GEOMETRY AND STEREOCHEMISTRY                                         
 500 SUBTOPIC: COVALENT BOND ANGLES                                       
 500                                                                      
 500 THE STEREOCHEMICAL PARAMETERS OF THE FOLLOWING RESIDUES              
 500 HAVE VALUES WHICH DEVIATE FROM EXPECTED VALUES BY MORE               
 500 THAN 6*RMSD (M=MODEL NUMBER; RES=RESIDUE NAME; C=CHAIN               
 500 IDENTIFIER; SSEQ=SEQUENCE NUMBER; I=INSERTION CODE).                 
 500                                                                      
 500 STANDARD TABLE:                                                      
 500 FORMAT: (10X,I3,1X,A3,1X,A1,I4,A1,3(1X,A4,2X),12X,F5.1)              
 500                                                                      
 500 EXPECTED VALUES PROTEIN: ENGH AND HUBER, 1999                        
 500 EXPECTED VALUES NUCLEIC ACID: CLOWNEY ET AL 1996                     
 500                                                                      
 500  M RES CSSEQI ATM1   ATM2   ATM3                                     
 500    ARG A  91   NE  -  CZ  -  NH1 ANGL. DEV. =   3.1 DEGREES          
 500    ARG A 133   NE  -  CZ  -  NH1 ANGL. DEV. =   3.3 DEGREES          
 500    ARG A 177   NE  -  CZ  -  NH1 ANGL. DEV. =   3.8 DEGREES          
 500    ARG A 177   NE  -  CZ  -  NH2 ANGL. DEV. =  -3.2 DEGREES          
 500    ARG B  91   NE  -  CZ  -  NH1 ANGL. DEV. =   3.9 DEGREES          
 500    ARG B 105   NE  -  CZ  -  NH1 ANGL. DEV. =   3.3 DEGREES          
 500    ARG B 210   CD  -  NE  -  CZ  ANGL. DEV. =  22.6 DEGREES          
 500    ARG B 210   NE  -  CZ  -  NH1 ANGL. DEV. =   5.5 DEGREES          
 500    LEU B 274   CA  -  CB  -  CG  ANGL. DEV. =  14.1 DEGREES          
 500                                                                      
 500 REMARK: NULL                                                         
 500                                                                      
 500 GEOMETRY AND STEREOCHEMISTRY                                         
 500 SUBTOPIC: TORSION ANGLES                                             
 500                                                                      
 500 TORSION ANGLES OUTSIDE THE EXPECTED RAMACHANDRAN REGIONS:            
 500 (M=MODEL NUMBER; RES=RESIDUE NAME; C=CHAIN IDENTIFIER;               
 500 SSEQ=SEQUENCE NUMBER; I=INSERTION CODE).                             
 500                                                                      
 500 STANDARD TABLE:                                                      
 500 FORMAT:(10X,I3,1X,A3,1X,A1,I4,A1,4X,F7.2,3X,F7.2)                    
 500                                                                      
 500 EXPECTED VALUES: GJ KLEYWEGT AND TA JONES (1996). PHI/PSI-           
 500 CHOLOGY: RAMACHANDRAN REVISITED. STRUCTURE 4, 1395 - 1400            
 500                                                                      
 500  M RES CSSEQI        PSI       PHI                                   
 500    VAL A   3      -91.11   -160.90                                   
 500    SER A   4       15.04     42.52                                   
 500    SER A  24       66.69     37.92                                   
 500    LEU A 184       72.77   -103.47                                   
 500    ARG A 204     -102.99   -110.19                                   
 500    ASP A 205       51.22    -91.97                                   
 500    TYR A 221       12.86   -159.34                                   
 500    ALA A 359       35.81    -81.10                                   
 500    VAL B   3     -116.16     44.59                                   
 500    SER B   4       91.95     40.18                                   
 500    THR B  15      -61.27    -92.40                                   
 500    ILE B  48      -70.55    -61.02                                   
 500    VAL B 178      -54.54   -123.07                                   
 500    ASP B 205      -97.51   -107.14                                   
 500    TYR B 221        9.11   -156.91                                   
 500    LYS B 315      129.97   -172.58                                   
 500    ASN B 341       38.17    -95.60                                   
 500                                                                      
 500 REMARK: NULL                                                         
 525                                                                      
 525 SOLVENT                                                              
 525                                                                      
 525 THE SOLVENT MOLECULES HAVE CHAIN IDENTIFIERS THAT                    
 525 INDICATE THE POLYMER CHAIN WITH WHICH THEY ARE MOST                  
 525 CLOSELY ASSOCIATED. THE REMARK LISTS ALL THE SOLVENT                 
 525 MOLECULES WHICH ARE MORE THAN 5A AWAY FROM THE                       
 525 NEAREST POLYMER CHAIN (M = MODEL NUMBER;                             
 525 RES=RESIDUE NAME; C=CHAIN IDENTIFIER; SSEQ=SEQUENCE                  
 525 NUMBER; I=INSERTION CODE):                                           
 525                                                                      
 525  M RES CSSEQI                                                        
 525    HOH A 461        DISTANCE =  5.08 ANGSTROMS                       
 525    HOH A 475        DISTANCE =  5.01 ANGSTROMS                       
 525    HOH B 526        DISTANCE =  5.24 ANGSTROMS                       
 525    HOH A 538        DISTANCE =  7.36 ANGSTROMS                       
 525    HOH B 565        DISTANCE =  8.16 ANGSTROMS                       
 525    HOH B 566        DISTANCE =  6.07 ANGSTROMS                       
 525    HOH B 577        DISTANCE =  5.08 ANGSTROMS                       
 525    HOH A 588        DISTANCE =  5.09 ANGSTROMS                       
 525    HOH A 595        DISTANCE =  8.00 ANGSTROMS                       
 525    HOH A 604        DISTANCE =  5.85 ANGSTROMS                       
 525    HOH B 612        DISTANCE =  5.44 ANGSTROMS                       
 525    HOH A 615        DISTANCE =  6.56 ANGSTROMS                       
 525    HOH B 618        DISTANCE =  6.11 ANGSTROMS                       
 525    HOH A 622        DISTANCE =  9.65 ANGSTROMS                       
 525    HOH A 654        DISTANCE =  7.41 ANGSTROMS                       
 525    HOH B 655        DISTANCE =  5.12 ANGSTROMS                       
 525    HOH A 663        DISTANCE =  6.03 ANGSTROMS                       
 525    HOH A 678        DISTANCE =  6.21 ANGSTROMS                       
 525    HOH A 682        DISTANCE =  7.40 ANGSTROMS                       
 525    HOH B 697        DISTANCE =  5.82 ANGSTROMS                       
 525    HOH A 720        DISTANCE =  6.75 ANGSTROMS                       
 525    HOH A 724        DISTANCE =  6.28 ANGSTROMS                       
 525    HOH A 733        DISTANCE =  5.47 ANGSTROMS                       
 525    HOH B 751        DISTANCE =  6.82 ANGSTROMS                       
 800                                                                      
 800 SITE                                                                 
 800 SITE_IDENTIFIER: AC1                                                 
 800 EVIDENCE_CODE: SOFTWARE                                              
 800 SITE_DESCRIPTION: BINDING SITE FOR RESIDUE IPP A 362                 
 800 SITE_IDENTIFIER: AC2                                                 
 800 EVIDENCE_CODE: SOFTWARE                                              
 800 SITE_DESCRIPTION: BINDING SITE FOR RESIDUE IPP B 362                 

>  <DBREF>
 1BLS A    1   361  UNP    P05364   AMPC_ENTCL      21    381             
 1BLS B    1   361  UNP    P05364   AMPC_ENTCL      21    381             

>  <SEQRES>
   1 A  361  THR PRO VAL SER GLU LYS GLN LEU ALA GLU VAL VAL ALA          
   2 A  361  ASN THR ILE THR PRO LEU MET LYS ALA GLN SER VAL PRO          
   3 A  361  GLY MET ALA VAL ALA VAL ILE TYR GLN GLY LYS PRO HIS          
   4 A  361  TYR TYR THR PHE GLY LYS ALA ASP ILE ALA ALA ASN LYS          
   5 A  361  PRO VAL THR PRO GLN THR LEU PHE GLU LEU GLY SER ILE          
   6 A  361  SER LYS THR PHE THR GLY VAL LEU GLY GLY ASP ALA ILE          
   7 A  361  ALA ARG GLY GLU ILE SER LEU ASP ASP ALA VAL THR ARG          
   8 A  361  TYR TRP PRO GLN LEU THR GLY LYS GLN TRP GLN GLY ILE          
   9 A  361  ARG MET LEU ASP LEU ALA THR TYR THR ALA GLY GLY LEU          
  10 A  361  PRO LEU GLN VAL PRO ASP GLU VAL THR ASP ASN ALA SER          
  11 A  361  LEU LEU ARG PHE TYR GLN ASN TRP GLN PRO GLN TRP LYS          
  12 A  361  PRO GLY THR THR ARG LEU TYR ALA ASN ALA SER ILE GLY          
  13 A  361  LEU PHE GLY ALA LEU ALA VAL LYS PRO SER GLY MET PRO          
  14 A  361  TYR GLU GLN ALA MET THR THR ARG VAL LEU LYS PRO LEU          
  15 A  361  LYS LEU ASP HIS THR TRP ILE ASN VAL PRO LYS ALA GLU          
  16 A  361  GLU ALA HIS TYR ALA TRP GLY TYR ARG ASP GLY LYS ALA          
  17 A  361  VAL ARG VAL SER PRO GLY MET LEU ASP ALA GLN ALA TYR          
  18 A  361  GLY VAL LYS THR ASN VAL GLN ASP MET ALA ASN TRP VAL          
  19 A  361  MET ALA ASN MET ALA PRO GLU ASN VAL ALA ASP ALA SER          
  20 A  361  LEU LYS GLN GLY ILE ALA LEU ALA GLN SER ARG TYR TRP          
  21 A  361  ARG ILE GLY SER MET TYR GLN GLY LEU GLY TRP GLU MET          
  22 A  361  LEU ASN TRP PRO VAL GLU ALA ASN THR VAL VAL GLU GLY          
  23 A  361  SER ASP SER LYS VAL ALA LEU ALA PRO LEU PRO VAL ALA          
  24 A  361  GLU VAL ASN PRO PRO ALA PRO PRO VAL LYS ALA SER TRP          
  25 A  361  VAL HIS LYS THR GLY SER THR GLY GLY PHE GLY SER TYR          
  26 A  361  VAL ALA PHE ILE PRO GLU LYS GLN ILE GLY ILE VAL MET          
  27 A  361  LEU ALA ASN THR SER TYR PRO ASN PRO ALA ARG VAL GLU          
  28 A  361  ALA ALA TYR HIS ILE LEU GLU ALA LEU GLN                      
   1 B  361  THR PRO VAL SER GLU LYS GLN LEU ALA GLU VAL VAL ALA          
   2 B  361  ASN THR ILE THR PRO LEU MET LYS ALA GLN SER VAL PRO          
   3 B  361  GLY MET ALA VAL ALA VAL ILE TYR GLN GLY LYS PRO HIS          
   4 B  361  TYR TYR THR PHE GLY LYS ALA ASP ILE ALA ALA ASN LYS          
   5 B  361  PRO VAL THR PRO GLN THR LEU PHE GLU LEU GLY SER ILE          
   6 B  361  SER LYS THR PHE THR GLY VAL LEU GLY GLY ASP ALA ILE          
   7 B  361  ALA ARG GLY GLU ILE SER LEU ASP ASP ALA VAL THR ARG          
   8 B  361  TYR TRP PRO GLN LEU THR GLY LYS GLN TRP GLN GLY ILE          
   9 B  361  ARG MET LEU ASP LEU ALA THR TYR THR ALA GLY GLY LEU          
  10 B  361  PRO LEU GLN VAL PRO ASP GLU VAL THR ASP ASN ALA SER          
  11 B  361  LEU LEU ARG PHE TYR GLN ASN TRP GLN PRO GLN TRP LYS          
  12 B  361  PRO GLY THR THR ARG LEU TYR ALA ASN ALA SER ILE GLY          
  13 B  361  LEU PHE GLY ALA LEU ALA VAL LYS PRO SER GLY MET PRO          
  14 B  361  TYR GLU GLN ALA MET THR THR ARG VAL LEU LYS PRO LEU          
  15 B  361  LYS LEU ASP HIS THR TRP ILE ASN VAL PRO LYS ALA GLU          
  16 B  361  GLU ALA HIS TYR ALA TRP GLY TYR ARG ASP GLY LYS ALA          
  17 B  361  VAL ARG VAL SER PRO GLY MET LEU ASP ALA GLN ALA TYR          
  18 B  361  GLY VAL LYS THR ASN VAL GLN ASP MET ALA ASN TRP VAL          
  19 B  361  MET ALA ASN MET ALA PRO GLU ASN VAL ALA ASP ALA SER          
  20 B  361  LEU LYS GLN GLY ILE ALA LEU ALA GLN SER ARG TYR TRP          
  21 B  361  ARG ILE GLY SER MET TYR GLN GLY LEU GLY TRP GLU MET          
  22 B  361  LEU ASN TRP PRO VAL GLU ALA ASN THR VAL VAL GLU GLY          
  23 B  361  SER ASP SER LYS VAL ALA LEU ALA PRO LEU PRO VAL ALA          
  24 B  361  GLU VAL ASN PRO PRO ALA PRO PRO VAL LYS ALA SER TRP          
  25 B  361  VAL HIS LYS THR GLY SER THR GLY GLY PHE GLY SER TYR          
  26 B  361  VAL ALA PHE ILE PRO GLU LYS GLN ILE GLY ILE VAL MET          
  27 B  361  LEU ALA ASN THR SER TYR PRO ASN PRO ALA ARG VAL GLU          
  28 B  361  ALA ALA TYR HIS ILE LEU GLU ALA LEU GLN                      

>  <HET>
 IPP  A 362      25                                                       
 IPP  B 362      25                                                       

>  <HETNAM>
     IPP (P-IODOPHENYLACETYLAMINO)METHYLPHOSPHINIC ACID                   

>  <FORMUL>
   3  IPP    2(C9 H11 I N O3 P)                                           
   5  HOH   *789(H2 O)                                                    

>  <HELIX>
   1  H1 LYS A    6  ALA A   22  1                                  17    
   2  H2 GLY A   63  ALA A   79  5BEGINS WITH 1 TURN OF 3/10        17    
   3 H3A VAL A   89  TYR A   92  1                                   4    
   4 H3B LYS A   99  TRP A  101  1                                   3    
   5  H4 MET A  106  THR A  111  1                                   6    
   6 H4A ASN A  128  ASN A  137  1                                  10    
   7  H5 ASN A  152  ALA A  162  1                                  11    
   8  H6 TYR A  170  LYS A  180  1                                  11    
   9  H7 ASP A  217  ALA A  220  1                                   4    
  10  H8 VAL A  227  MET A  238  1                                  12    
  11  H9 ALA A  246  ALA A  255  1                                  10    
  12 H10 ALA A  280  GLY A  286  1                                   7    
  13 H10 SER A  289  ALA A  292  1                                   4    
  14 H11 ASN A  346  GLU A  358  1                                  13    
  15  K1 LYS B    6  ALA B   22  1                                  17    
  16  K2 GLY B   63  ALA B   79  5BEGINS WITH 1 TURN OF 3/10        17    
  17 K3A VAL B   89  TYR B   92  1                                   4    
  18 K3B LYS B   99  TRP B  101  1                                   3    
  19  K4 MET B  106  THR B  111  1                                   6    
  20 K4A ASN B  128  ASN B  137  1                                  10    
  21  K5 ASN B  152  ALA B  162  1                                  11    
  22  K6 TYR B  170  LYS B  180  1                                  11    
  23  K7 ASP B  217  ALA B  220  1                                   4    
  24  K8 VAL B  227  MET B  238  1                                  12    
  25  K9 ALA B  246  ALA B  255  1                                  10    
  26 K10 ALA B  280  GLY B  286  1                                   7    
  27 K10 SER B  289  ALA B  292  1                                   4    
  28 K11 ASN B  346  GLU B  358  1                                  13    

>  <SHEET>
   1   1 9 LYS A  37  ASP A  47  0                                        
   2   1 9 GLY A  27  TYR A  34 -1  O  VAL A  30   N  TYR A  41           
   3   1 9 ILE A 334  ALA A 340  1  O  VAL A 337   N  ALA A  31           
   4   1 9 GLY A 323  ILE A 329 -1  O  TYR A 325   N  MET A 338           
   5   1 9 SER A 311  SER A 318  1  O  LYS A 315   N  VAL A 326           
   6   1 9 GLU A 272  ASN A 275 -1  O  GLU A 272   N  HIS A 314           
   7   1 9 MET A 265  GLN A 267  1  O  TYR A 266   N  MET A 273           
   8   1 9 ARG A 258  ILE A 262 -1  O  TRP A 260   N  GLN A 267           
   9   1 9 LEU A 296  ALA A 305  1  O  ALA A 299   N  ARG A 261           
   1   2 3 THR A  58  GLU A  61  0                                        
   2   2 3 LYS A 224  ASN A 226 -1  N  THR A 225   O  PHE A  60           
   3   2 3 HIS A 186  ILE A 189  1  N  TRP A 188   O  LYS A 224           
   1   3 9 LYS B  37  ASP B  47  0                                        
   2   3 9 GLY B  27  TYR B  34 -1  O  VAL B  30   N  TYR B  41           
   3   3 9 ILE B 334  ALA B 340  1  O  VAL B 337   N  ALA B  31           
   4   3 9 GLY B 323  ILE B 329 -1  O  TYR B 325   N  MET B 338           
   5   3 9 SER B 311  SER B 318  1  O  LYS B 315   N  VAL B 326           
   6   3 9 GLU B 272  ASN B 275 -1  O  GLU B 272   N  HIS B 314           
   7   3 9 MET B 265  GLN B 267  1  O  TYR B 266   N  MET B 273           
   8   3 9 ARG B 258  ILE B 262 -1  O  TRP B 260   N  GLN B 267           
   9   3 9 LEU B 296  ALA B 305  1  O  ALA B 299   N  ARG B 261           
   1   4 3 THR B  58  GLU B  61  0                                        
   2   4 3 LYS B 224  ASN B 226 -1  N  THR B 225   O  PHE B  60           
   3   4 3 HIS B 186  ILE B 189  1  N  TRP B 188   O  LYS B 224           

>  <LINK>
       OG  SER A  64                 P   IPP A 362     1555   1555  1.64  
       OG  SER B  64                 P   IPP B 362     1555   1555  1.65  

>  <CISPEP>
   1 TRP A  276    PRO A  277          0         1.86                     
   2 ASN A  302    PRO A  303          0        -1.20                     
   3 TRP B  276    PRO B  277          0         2.38                     
   4 ASN B  302    PRO B  303          0         0.52                     

>  <SITE>
   1 AC1  9 SER A  64  GLN A 120  TYR A 150  ASN A 152                    
   2 AC1  9 TYR A 221  GLY A 317  SER A 318  GLY A 320                    
   3 AC1  9 HOH A 563                                                     
   1 AC2  9 SER B  64  GLN B 120  TYR B 150  ASN B 152                    
   2 AC2  9 TYR B 221  GLY B 317  SER B 318  HOH B 480                    
   3 AC2  9 HOH B 657                                                     

>  <ORIGX1>
      1.000000  0.000000  0.000000        0.00000                         

>  <ORIGX2>
      0.000000  1.000000  0.000000        0.00000                         

>  <ORIGX3>
      0.000000  0.000000  1.000000        0.00000                         

>  <SCALE1>
      0.021505  0.000000  0.000004        0.00000                         

>  <SCALE2>
      0.000000  0.011980  0.000000        0.00000                         

>  <SCALE3>
      0.000000  0.000000  0.010476        0.00000                         

>  <MTRIX1>
   1 -0.999993 -0.000825 -0.003734       23.35410    1                    

>  <MTRIX2>
   1  0.000865 -0.999943 -0.010627       56.14040    1                    

>  <MTRIX3>
   1 -0.003725 -0.010630  0.999937        0.97560    1                    

>  <MASTER>
      396    0    2   28   24    0    6    9 6341    2   52   56          

$$$$
