start_structures/Ligand_Substrate/Ligand_Complex_Stripped/ISS_3CG5.pdb
 OpenBabel08222315193D

 17 16  0  0  1  0  0  0  0  0999 V2000
  -14.9930  -10.9710    5.6600 N   0  0  0  0  0  0  0  0  0  0  0  0
  -14.3760  -10.7100    6.9690 C   0  0  2  0  0  0  0  0  0  0  0  0
  -15.3580   -9.8650    7.7820 C   0  0  0  0  0  0  0  0  0  0  0  0
  -15.0810   -9.4920    8.9210 O   0  0  0  0  0  0  0  0  0  0  0  0
  -13.0620   -9.9460    6.8000 C   0  0  0  0  0  0  0  0  0  0  0  0
  -11.9820  -10.8770    6.6460 O   0  0  0  0  0  0  0  0  0  0  0  0
  -11.7680  -11.1100    5.3230 C   0  0  0  0  0  0  0  0  0  0  0  0
  -12.5240  -10.6150    4.4890 O   0  0  0  0  0  0  0  0  0  0  0  0
  -10.5910  -11.9850    4.8890 C   0  0  0  0  0  0  0  0  0  0  0  0
  -10.6150  -12.2270    3.3790 C   0  0  0  0  0  0  0  0  0  0  0  0
   -9.5230  -13.1390    3.0100 N   0  0  0  0  0  0  0  0  0  0  0  0
   -9.5800  -13.4150    1.5670 C   0  0  0  0  0  0  0  0  0  0  0  0
   -9.0880  -12.1900    0.7930 C   0  0  0  0  0  0  0  0  0  0  0  0
   -8.9640  -11.1050    1.3590 O   0  0  0  0  0  0  0  0  0  0  0  0
   -8.7500  -12.3330   -0.6920 C   0  0  0  0  0  0  0  0  0  0  0  0
   -9.8510  -13.1330   -1.3910 C   0  0  0  0  0  0  0  0  0  0  0  0
  -10.5870  -13.8020   -0.7720 O   0  0  0  0  0  0  0  0  0  0  0  0
  2  1  1  6  0  0  0
  2  3  1  0  0  0  0
  3  4  2  0  0  0  0
  5  2  1  0  0  0  0
  6  7  1  0  0  0  0
  6  5  1  0  0  0  0
  7  8  2  0  0  0  0
  7  9  1  0  0  0  0
  9 10  1  0  0  0  0
 10 11  1  0  0  0  0
 11 12  1  0  0  0  0
 12 13  1  0  0  0  0
 13 14  2  0  0  0  0
 13 15  1  0  0  0  0
 15 16  1  0  0  0  0
 16 17  2  0  0  0  0
M  END
>  <HEADER>
    HYDROLASE                               04-MAR-08   3CG5              

>  <TITLE>
    CRYSTAL STRUCTURE OF THE COVALENT ADDUCT FORMED BETWEEN TB            
   2 B-LACTAMASE AND CLAVULANATE                                          

>  <COMPND>
    MOL_ID: 1;                                                            
   2 MOLECULE: BETA-LACTAMASE;                                            
   3 CHAIN: A;                                                            
   4 FRAGMENT: UNP RESIDUES 43-307;                                       
   5 SYNONYM: PENICILLINASE;                                              
   6 EC: 3.5.2.6;                                                         
   7 ENGINEERED: YES                                                      

>  <SOURCE>
    MOL_ID: 1;                                                            
   2 ORGANISM_SCIENTIFIC: MYCOBACTERIUM TUBERCULOSIS;                     
   3 GENE: BLAA, BLAC;                                                    
   4 EXPRESSION_SYSTEM: ESCHERICHIA COLI;                                 
   5 EXPRESSION_SYSTEM_STRAIN: BL21(DE3);                                 
   6 EXPRESSION_SYSTEM_VECTOR_TYPE: PLASMID;                              
   7 EXPRESSION_SYSTEM_PLASMID: PET28A                                    

>  <KEYWDS>
    ALPHA-BETA STRUCTURE, COVALENT ADDUCT, ANTIBIOTIC                     
   2 RESISTANCE, HYDROLASE, LIPOPROTEIN, MEMBRANE, PALMITATE              

>  <EXPDTA>
    X-RAY DIFFRACTION                                                     

>  <AUTHOR>
    L.W.TREMBLAY,J.E.HUGONNET,J.S.BLANCHARD                               

>  <REVDAT>
   2   24-FEB-09 3CG5    1       VERSN                                    
   1   27-MAY-08 3CG5    0                                                

>  <JRNL>
      AUTH   L.W.TREMBLAY,J.E.HUGONNET,J.S.BLANCHARD                      
      TITL   STRUCTURE OF THE COVALENT ADDUCT FORMED BETWEEN              
      TITL 2 MYCOBACTERIUM TUBERCULOSIS BETA-LACTAMASE AND                
      TITL 3 CLAVULANATE.                                                 
      REF    BIOCHEMISTRY                  V.  47  5312 2008              
      REFN                   ISSN 0006-2960                               
      PMID   18422342                                                     
      DOI    10.1021/BI8001055                                            

>  <REMARK>
   1                                                                      
   2                                                                      
   2 RESOLUTION.    1.70 ANGSTROMS.                                       
   3                                                                      
   3 REFINEMENT.                                                          
   3   PROGRAM     : REFMAC 5.2.0019                                      
   3   AUTHORS     : MURSHUDOV,VAGIN,DODSON                               
   3                                                                      
   3    REFINEMENT TARGET : MAXIMUM LIKELIHOOD                            
   3                                                                      
   3  DATA USED IN REFINEMENT.                                            
   3   RESOLUTION RANGE HIGH (ANGSTROMS) : 1.70                           
   3   RESOLUTION RANGE LOW  (ANGSTROMS) : 41.40                          
   3   DATA CUTOFF            (SIGMA(F)) : NULL                           
   3   COMPLETENESS FOR RANGE        (%) : 96.0                           
   3   NUMBER OF REFLECTIONS             : 25961                          
   3                                                                      
   3  FIT TO DATA USED IN REFINEMENT.                                     
   3   CROSS-VALIDATION METHOD          : THROUGHOUT                      
   3   FREE R VALUE TEST SET SELECTION  : RANDOM                          
   3   R VALUE     (WORKING + TEST SET) : 0.181                           
   3   R VALUE            (WORKING SET) : 0.180                           
   3   FREE R VALUE                     : 0.212                           
   3   FREE R VALUE TEST SET SIZE   (%) : 5.100                           
   3   FREE R VALUE TEST SET COUNT      : 1388                            
   3                                                                      
   3  FIT IN THE HIGHEST RESOLUTION BIN.                                  
   3   TOTAL NUMBER OF BINS USED           : 20                           
   3   BIN RESOLUTION RANGE HIGH       (A) : 1.70                         
   3   BIN RESOLUTION RANGE LOW        (A) : 1.74                         
   3   REFLECTION IN BIN     (WORKING SET) : 1732                         
   3   BIN COMPLETENESS (WORKING+TEST) (%) : 87.86                        
   3   BIN R VALUE           (WORKING SET) : 0.3250                       
   3   BIN FREE R VALUE SET COUNT          : 78                           
   3   BIN FREE R VALUE                    : 0.3930                       
   3                                                                      
   3  NUMBER OF NON-HYDROGEN ATOMS USED IN REFINEMENT.                    
   3   PROTEIN ATOMS            : 1988                                    
   3   NUCLEIC ACID ATOMS       : 0                                       
   3   HETEROGEN ATOMS          : 31                                      
   3   SOLVENT ATOMS            : 271                                     
   3                                                                      
   3  B VALUES.                                                           
   3   FROM WILSON PLOT           (A**2) : 15.76                          
   3   MEAN B VALUE      (OVERALL, A**2) : 13.99                          
   3   OVERALL ANISOTROPIC B VALUE.                                       
   3    B11 (A**2) : 0.01000                                              
   3    B22 (A**2) : 0.00000                                              
   3    B33 (A**2) : -0.01000                                             
   3    B12 (A**2) : 0.00000                                              
   3    B13 (A**2) : 0.00000                                              
   3    B23 (A**2) : 0.00000                                              
   3                                                                      
   3  ESTIMATED OVERALL COORDINATE ERROR.                                 
   3   ESU BASED ON R VALUE                            (A): 0.116         
   3   ESU BASED ON FREE R VALUE                       (A): 0.110         
   3   ESU BASED ON MAXIMUM LIKELIHOOD                 (A): 0.081         
   3   ESU FOR B VALUES BASED ON MAXIMUM LIKELIHOOD (A**2): 2.540         
   3                                                                      
   3 CORRELATION COEFFICIENTS.                                            
   3   CORRELATION COEFFICIENT FO-FC      : 0.952                         
   3   CORRELATION COEFFICIENT FO-FC FREE : 0.929                         
   3                                                                      
   3  RMS DEVIATIONS FROM IDEAL VALUES        COUNT    RMS    WEIGHT      
   3   BOND LENGTHS REFINED ATOMS        (A):  2052 ; 0.014 ; 0.022       
   3   BOND LENGTHS OTHERS               (A):  NULL ;  NULL ;  NULL       
   3   BOND ANGLES REFINED ATOMS   (DEGREES):  2798 ; 1.508 ; 1.983       
   3   BOND ANGLES OTHERS          (DEGREES):  NULL ;  NULL ;  NULL       
   3   TORSION ANGLES, PERIOD 1    (DEGREES):   262 ;11.074 ; 5.000       
   3   TORSION ANGLES, PERIOD 2    (DEGREES):    88 ;38.358 ;23.182       
   3   TORSION ANGLES, PERIOD 3    (DEGREES):   303 ;11.729 ;15.000       
   3   TORSION ANGLES, PERIOD 4    (DEGREES):    19 ;21.684 ;15.000       
   3   CHIRAL-CENTER RESTRAINTS       (A**3):   319 ; 0.102 ; 0.200       
   3   GENERAL PLANES REFINED ATOMS      (A):  1567 ; 0.006 ; 0.020       
   3   GENERAL PLANES OTHERS             (A):  NULL ;  NULL ;  NULL       
   3   NON-BONDED CONTACTS REFINED ATOMS (A):  1124 ; 0.230 ; 0.200       
   3   NON-BONDED CONTACTS OTHERS        (A):  NULL ;  NULL ;  NULL       
   3   NON-BONDED TORSION REFINED ATOMS  (A):  1418 ; 0.302 ; 0.200       
   3   NON-BONDED TORSION OTHERS         (A):  NULL ;  NULL ;  NULL       
   3   H-BOND (X...Y) REFINED ATOMS      (A):   203 ; 0.134 ; 0.200       
   3   H-BOND (X...Y) OTHERS             (A):  NULL ;  NULL ;  NULL       
   3   POTENTIAL METAL-ION REFINED ATOMS (A):  NULL ;  NULL ;  NULL       
   3   POTENTIAL METAL-ION OTHERS        (A):  NULL ;  NULL ;  NULL       
   3   SYMMETRY VDW REFINED ATOMS        (A):    62 ; 0.217 ; 0.200       
   3   SYMMETRY VDW OTHERS               (A):  NULL ;  NULL ;  NULL       
   3   SYMMETRY H-BOND REFINED ATOMS     (A):    21 ; 0.145 ; 0.200       
   3   SYMMETRY H-BOND OTHERS            (A):  NULL ;  NULL ;  NULL       
   3   SYMMETRY METAL-ION REFINED ATOMS  (A):  NULL ;  NULL ;  NULL       
   3   SYMMETRY METAL-ION OTHERS         (A):  NULL ;  NULL ;  NULL       
   3                                                                      
   3  ISOTROPIC THERMAL FACTOR RESTRAINTS.     COUNT   RMS    WEIGHT      
   3   MAIN-CHAIN BOND REFINED ATOMS  (A**2):  1346 ; 0.732 ; 1.500       
   3   MAIN-CHAIN BOND OTHER ATOMS    (A**2):  NULL ;  NULL ;  NULL       
   3   MAIN-CHAIN ANGLE REFINED ATOMS (A**2):  2096 ; 1.094 ; 2.000       
   3   SIDE-CHAIN BOND REFINED ATOMS  (A**2):   795 ; 2.046 ; 3.000       
   3   SIDE-CHAIN ANGLE REFINED ATOMS (A**2):   702 ; 3.113 ; 4.500       
   3                                                                      
   3 ANISOTROPIC THERMAL FACTOR RESTRAINTS.    COUNT   RMS   WEIGHT       
   3   RIGID-BOND RESTRAINTS          (A**2):  NULL ;  NULL ;  NULL       
   3   SPHERICITY; FREE ATOMS         (A**2):  NULL ;  NULL ;  NULL       
   3   SPHERICITY; BONDED ATOMS       (A**2):  NULL ;  NULL ;  NULL       
   3                                                                      
   3  NCS RESTRAINTS STATISTICS                                           
   3   NUMBER OF DIFFERENT NCS GROUPS : NULL                              
   3                                                                      
   3  TLS DETAILS                                                         
   3   NUMBER OF TLS GROUPS  : NULL                                       
   3                                                                      
   3  BULK SOLVENT MODELLING.                                             
   3   METHOD USED : MASK                                                 
   3   PARAMETERS FOR MASK CALCULATION                                    
   3   VDW PROBE RADIUS   : 1.20                                          
   3   ION PROBE RADIUS   : 0.80                                          
   3   SHRINKAGE RADIUS   : 0.80                                          
   3                                                                      
   3  OTHER REFINEMENT REMARKS: NULL                                      
   4                                                                      
   4 3CG5 COMPLIES WITH FORMAT V. 3.15, 01-DEC-08                         
 100                                                                      
 100 THIS ENTRY HAS BEEN PROCESSED BY RCSB ON 10-MAR-08.                  
 100 THE RCSB ID CODE IS RCSB046735.                                      
 200                                                                      
 200 EXPERIMENTAL DETAILS                                                 
 200  EXPERIMENT TYPE                : X-RAY DIFFRACTION                  
 200  DATE OF DATA COLLECTION        : 08-AUG-07                          
 200  TEMPERATURE           (KELVIN) : 100                                
 200  PH                             : 4.1                                
 200  NUMBER OF CRYSTALS USED        : 1                                  
 200                                                                      
 200  SYNCHROTRON              (Y/N) : Y                                  
 200  RADIATION SOURCE               : NSLS                               
 200  BEAMLINE                       : X12C                               
 200  X-RAY GENERATOR MODEL          : NULL                               
 200  MONOCHROMATIC OR LAUE    (M/L) : M                                  
 200  WAVELENGTH OR RANGE        (A) : 1.100                              
 200  MONOCHROMATOR                  : GRAPHITE                           
 200  OPTICS                         : NULL                               
 200                                                                      
 200  DETECTOR TYPE                  : CCD                                
 200  DETECTOR MANUFACTURER          : ADSC QUANTUM 210                   
 200  INTENSITY-INTEGRATION SOFTWARE : HKL-2000                           
 200  DATA SCALING SOFTWARE          : HKL-2000                           
 200                                                                      
 200  NUMBER OF UNIQUE REFLECTIONS   : 27349                              
 200  RESOLUTION RANGE HIGH      (A) : 1.700                              
 200  RESOLUTION RANGE LOW       (A) : 41.400                             
 200  REJECTION CRITERIA  (SIGMA(I)) : 0.000                              
 200                                                                      
 200 OVERALL.                                                             
 200  COMPLETENESS FOR RANGE     (%) : 96.0                               
 200  DATA REDUNDANCY                : 3.300                              
 200  R MERGE                    (I) : 0.05000                            
 200  R SYM                      (I) : NULL                               
 200  <I/SIGMA(I)> FOR THE DATA SET  : 18.0000                            
 200                                                                      
 200 IN THE HIGHEST RESOLUTION SHELL.                                     
 200  HIGHEST RESOLUTION SHELL, RANGE HIGH (A) : 1.70                     
 200  HIGHEST RESOLUTION SHELL, RANGE LOW  (A) : 1.74                     
 200  COMPLETENESS FOR SHELL     (%) : 88.0                               
 200  DATA REDUNDANCY IN SHELL       : 3.00                               
 200  R MERGE FOR SHELL          (I) : 0.40000                            
 200  R SYM FOR SHELL            (I) : NULL                               
 200  <I/SIGMA(I)> FOR SHELL         : 2.000                              
 200                                                                      
 200 DIFFRACTION PROTOCOL: SINGLE WAVELENGTH                              
 200 METHOD USED TO DETERMINE THE STRUCTURE: MOLECULAR REPLACEMENT        
 200 SOFTWARE USED: AMORE                                                 
 200 STARTING MODEL: PDB ENTRY 2GDN                                       
 200                                                                      
 200 REMARK: NULL                                                         
 280                                                                      
 280 CRYSTAL                                                              
 280 SOLVENT CONTENT, VS   (%): 44.83                                     
 280 MATTHEWS COEFFICIENT, VM (ANGSTROMS**3/DA): 2.23                     
 280                                                                      
 280 CRYSTALLIZATION CONDITIONS: 0.1 M HEPES PH 7.5, 2 M NH4(H2)PO4,      
 280  PH 4.1, VAPOR DIFFUSION, HANGING DROP, TEMPERATURE 298K             
 290                                                                      
 290 CRYSTALLOGRAPHIC SYMMETRY                                            
 290 SYMMETRY OPERATORS FOR SPACE GROUP: P 21 21 21                       
 290                                                                      
 290      SYMOP   SYMMETRY                                                
 290     NNNMMM   OPERATOR                                                
 290       1555   X,Y,Z                                                   
 290       2555   -X+1/2,-Y,Z+1/2                                         
 290       3555   -X,Y+1/2,-Z+1/2                                         
 290       4555   X+1/2,-Y+1/2,-Z                                         
 290                                                                      
 290     WHERE NNN -> OPERATOR NUMBER                                     
 290           MMM -> TRANSLATION VECTOR                                  
 290                                                                      
 290 CRYSTALLOGRAPHIC SYMMETRY TRANSFORMATIONS                            
 290 THE FOLLOWING TRANSFORMATIONS OPERATE ON THE ATOM/HETATM             
 290 RECORDS IN THIS ENTRY TO PRODUCE CRYSTALLOGRAPHICALLY                
 290 RELATED MOLECULES.                                                   
 290   SMTRY1   1  1.000000  0.000000  0.000000        0.00000            
 290   SMTRY2   1  0.000000  1.000000  0.000000        0.00000            
 290   SMTRY3   1  0.000000  0.000000  1.000000        0.00000            
 290   SMTRY1   2 -1.000000  0.000000  0.000000       24.83300            
 290   SMTRY2   2  0.000000 -1.000000  0.000000        0.00000            
 290   SMTRY3   2  0.000000  0.000000  1.000000       37.51600            
 290   SMTRY1   3 -1.000000  0.000000  0.000000        0.00000            
 290   SMTRY2   3  0.000000  1.000000  0.000000       33.82750            
 290   SMTRY3   3  0.000000  0.000000 -1.000000       37.51600            
 290   SMTRY1   4  1.000000  0.000000  0.000000       24.83300            
 290   SMTRY2   4  0.000000 -1.000000  0.000000       33.82750            
 290   SMTRY3   4  0.000000  0.000000 -1.000000        0.00000            
 290                                                                      
 290 REMARK: NULL                                                         
 300                                                                      
 300 BIOMOLECULE: 1                                                       
 300 SEE REMARK 350 FOR THE AUTHOR PROVIDED AND/OR PROGRAM                
 300 GENERATED ASSEMBLY INFORMATION FOR THE STRUCTURE IN                  
 300 THIS ENTRY. THE REMARK MAY ALSO PROVIDE INFORMATION ON               
 300 BURIED SURFACE AREA.                                                 
 350                                                                      
 350 COORDINATES FOR A COMPLETE MULTIMER REPRESENTING THE KNOWN           
 350 BIOLOGICALLY SIGNIFICANT OLIGOMERIZATION STATE OF THE                
 350 MOLECULE CAN BE GENERATED BY APPLYING BIOMT TRANSFORMATIONS          
 350 GIVEN BELOW.  BOTH NON-CRYSTALLOGRAPHIC AND                          
 350 CRYSTALLOGRAPHIC OPERATIONS ARE GIVEN.                               
 350                                                                      
 350 BIOMOLECULE: 1                                                       
 350 AUTHOR DETERMINED BIOLOGICAL UNIT: MONOMERIC                         
 350 SOFTWARE DETERMINED QUATERNARY STRUCTURE: MONOMERIC                  
 350 SOFTWARE USED: PISA                                                  
 350 APPLY THE FOLLOWING TO CHAINS: A                                     
 350   BIOMT1   1  1.000000  0.000000  0.000000        0.00000            
 350   BIOMT2   1  0.000000  1.000000  0.000000        0.00000            
 350   BIOMT3   1  0.000000  0.000000  1.000000        0.00000            
 500                                                                      
 500 GEOMETRY AND STEREOCHEMISTRY                                         
 500 SUBTOPIC: COVALENT BOND ANGLES                                       
 500                                                                      
 500 THE STEREOCHEMICAL PARAMETERS OF THE FOLLOWING RESIDUES              
 500 HAVE VALUES WHICH DEVIATE FROM EXPECTED VALUES BY MORE               
 500 THAN 6*RMSD (M=MODEL NUMBER; RES=RESIDUE NAME; C=CHAIN               
 500 IDENTIFIER; SSEQ=SEQUENCE NUMBER; I=INSERTION CODE).                 
 500                                                                      
 500 STANDARD TABLE:                                                      
 500 FORMAT: (10X,I3,1X,A3,1X,A1,I4,A1,3(1X,A4,2X),12X,F5.1)              
 500                                                                      
 500 EXPECTED VALUES PROTEIN: ENGH AND HUBER, 1999                        
 500 EXPECTED VALUES NUCLEIC ACID: CLOWNEY ET AL 1996                     
 500                                                                      
 500  M RES CSSEQI ATM1   ATM2   ATM3                                     
 500    ARG A 229   NE  -  CZ  -  NH1 ANGL. DEV. =  -3.1 DEGREES          
 500                                                                      
 500 REMARK: NULL                                                         
 500                                                                      
 500 GEOMETRY AND STEREOCHEMISTRY                                         
 500 SUBTOPIC: TORSION ANGLES                                             
 500                                                                      
 500 TORSION ANGLES OUTSIDE THE EXPECTED RAMACHANDRAN REGIONS:            
 500 (M=MODEL NUMBER; RES=RESIDUE NAME; C=CHAIN IDENTIFIER;               
 500 SSEQ=SEQUENCE NUMBER; I=INSERTION CODE).                             
 500                                                                      
 500 STANDARD TABLE:                                                      
 500 FORMAT:(10X,I3,1X,A3,1X,A1,I4,A1,4X,F7.2,3X,F7.2)                    
 500                                                                      
 500 EXPECTED VALUES: GJ KLEYWEGT AND TA JONES (1996). PHI/PSI-           
 500 CHOLOGY: RAMACHANDRAN REVISITED. STRUCTURE 4, 1395 - 1400            
 500                                                                      
 500  M RES CSSEQI        PSI       PHI                                   
 500    THR A  66     -164.12   -122.52                                   
 500    CYS A  83     -133.15     43.99                                   
 500    GLU A 181     -166.25   -107.35                                   
 500    ARG A 236     -118.57   -119.04                                   
 500                                                                      
 500 REMARK: NULL                                                         
 600                                                                      
 600 HETEROGEN                                                            
 600 CLAVULANATE WAS USED IN PROTEIN                                      
 600 SOLUTION WHICH UNDERWENT CHEMICAL REACTION AND                       
 600 SUBSEQUENTLY FORMED ISS WHICH COVALENTLY BONDED                      
 600 TO SER84 OF THE PROTEIN                                              
 800                                                                      
 800 SITE                                                                 
 800 SITE_IDENTIFIER: AC1                                                 
 800 EVIDENCE_CODE: SOFTWARE                                              
 800 SITE_DESCRIPTION: BINDING SITE FOR RESIDUE PO4 A 308                 
 800 SITE_IDENTIFIER: AC2                                                 
 800 EVIDENCE_CODE: SOFTWARE                                              
 800 SITE_DESCRIPTION: BINDING SITE FOR RESIDUE PO4 A 309                 
 800 SITE_IDENTIFIER: AC3                                                 
 800 EVIDENCE_CODE: SOFTWARE                                              
 800 SITE_DESCRIPTION: BINDING SITE FOR RESIDUE PO4 A 310                 
 800 SITE_IDENTIFIER: AC4                                                 
 800 EVIDENCE_CODE: SOFTWARE                                              
 800 SITE_DESCRIPTION: BINDING SITE FOR RESIDUE PO4 A 311                 
 800 SITE_IDENTIFIER: AC5                                                 
 800 EVIDENCE_CODE: SOFTWARE                                              
 800 SITE_DESCRIPTION: BINDING SITE FOR RESIDUE ISS A 684                 

>  <DBREF>
 3CG5 A   43   307  UNP    P0C5C1   BLAC_MYCTU      43    307             

>  <SEQRES>
   1 A  265  ASP LEU ALA ASP ARG PHE ALA GLU LEU GLU ARG ARG TYR          
   2 A  265  ASP ALA ARG LEU GLY VAL TYR VAL PRO ALA THR GLY THR          
   3 A  265  THR ALA ALA ILE GLU TYR ARG ALA ASP GLU ARG PHE ALA          
   4 A  265  PHE CYS SER THR PHE LYS ALA PRO LEU VAL ALA ALA VAL          
   5 A  265  LEU HIS GLN ASN PRO LEU THR HIS LEU ASP LYS LEU ILE          
   6 A  265  THR TYR THR SER ASP ASP ILE ARG SER ILE SER PRO VAL          
   7 A  265  ALA GLN GLN HIS VAL GLN THR GLY MET THR ILE GLY GLN          
   8 A  265  LEU CYS ASP ALA ALA ILE ARG TYR SER ASP GLY THR ALA          
   9 A  265  ALA ASN LEU LEU LEU ALA ASP LEU GLY GLY PRO GLY GLY          
  10 A  265  GLY THR ALA ALA PHE THR GLY TYR LEU ARG SER LEU GLY          
  11 A  265  ASP THR VAL SER ARG LEU ASP ALA GLU GLU PRO GLU LEU          
  12 A  265  ASN ARG ASP PRO PRO GLY ASP GLU ARG ASP THR THR THR          
  13 A  265  PRO HIS ALA ILE ALA LEU VAL LEU GLN GLN LEU VAL LEU          
  14 A  265  GLY ASN ALA LEU PRO PRO ASP LYS ARG ALA LEU LEU THR          
  15 A  265  ASP TRP MET ALA ARG ASN THR THR GLY ALA LYS ARG ILE          
  16 A  265  ARG ALA GLY PHE PRO ALA ASP TRP LYS VAL ILE ASP LYS          
  17 A  265  THR GLY THR GLY ASP TYR GLY ARG ALA ASN ASP ILE ALA          
  18 A  265  VAL VAL TRP SER PRO THR GLY VAL PRO TYR VAL VAL ALA          
  19 A  265  VAL MET SER ASP ARG ALA GLY GLY GLY TYR ASP ALA GLU          
  20 A  265  PRO ARG GLU ALA LEU LEU ALA GLU ALA ALA THR CYS VAL          
  21 A  265  ALA GLY VAL LEU ALA                                          

>  <HET>
 PO4  A 308       5                                                       
 PO4  A 309       5                                                       
 PO4  A 310       5                                                       
 PO4  A 311       5                                                       
 ISS  A 684      11                                                       

>  <HETNAM>
     PO4 PHOSPHATE ION                                                    
     ISS (2E)-3-[(4-HYDROXY-2-OXOBUTYL)AMINO]PROP-2-ENAL                  

>  <FORMUL>
   2  PO4    4(O4 P 3-)                                                   
   6  ISS    C7 H11 N O3                                                  
   7  HOH   *271(H2 O)                                                    

>  <HELIX>
   1   1 ASP A   43  TYR A   55  1                                  13    
   2   2 CYS A   83  THR A   85  5                                   3    
   3   3 PHE A   86  ASN A   98  1                                  13    
   4   4 PRO A   99  ASP A  104  5                                   6    
   5   5 THR A  110  ILE A  114  5                                   5    
   6   6 VAL A  120  VAL A  125  1                                   6    
   7   7 ILE A  131  TYR A  141  1                                  11    
   8   8 ASP A  143  GLY A  155  1                                  13    
   9   9 GLY A  156  GLY A  159  5                                   4    
  10  10 GLY A  160  LEU A  171  1                                  12    
  11  11 PRO A  183  ARG A  187  5                                   5    
  12  12 THR A  198  LEU A  211  1                                  14    
  13  13 PRO A  216  ARG A  229  1                                  14    
  14  14 ARG A  236  PHE A  241  1                                   6    
  15  15 ARG A  281  GLY A  285  5                                   5    
  16  16 ARG A  291  ALA A  307  1                                  17    

>  <SHEET>
   1   A 5 ILE A  72  TYR A  74  0                                        
   2   A 5 ARG A  58  VAL A  63 -1  N  VAL A  61   O  TYR A  74           
   3   A 5 PRO A 272  ASP A 280 -1  O  MET A 278   N  GLY A  60           
   4   A 5 ARG A 258  TRP A 266 -1  N  ASP A 261   O  VAL A 277           
   5   A 5 LYS A 246  GLY A 254 -1  N  GLY A 252   O  ASN A 260           
   1   B 2 PHE A  80  ALA A  81  0                                        
   2   B 2 THR A 196  THR A 197 -1  O  THR A 197   N  PHE A  80           
   1   C 2 LEU A 106  ILE A 107  0                                        
   2   C 2 MET A 129  THR A 130 -1  O  MET A 129   N  ILE A 107           

>  <LINK>
       OG  SER A  84                 CAG ISS A 684     1555   1555  1.36  

>  <CISPEP>
   1 GLU A  182    PRO A  183          0        -0.40                     

>  <SITE>
   1 AC1  8 ARG A  79  ARG A 187  GLU A 193  ASP A 255                    
   2 AC1  8 TYR A 286  HOH A 322  HOH A 350  HOH A 370                    
   1 AC2  9 SER A  84  SER A 142  THR A 232  THR A 251                    
   2 AC2  9 GLY A 252  THR A 253  HOH A 492  HOH A 500                    
   3 AC2  9 HOH A 516                                                     
   1 AC3  8 ARG A  75  GLU A  78  GLU A 184  HOH A 324                    
   2 AC3  8 HOH A 346  HOH A 410  HOH A 536  HOH A 545                    
   1 AC4  5 ASP A 218  LYS A 219  LYS A 235  HOH A 465                    
   2 AC4  5 HOH A 474                                                     
   1 AC5 11 CYS A  83  SER A  84  SER A 142  GLU A 182                    
   2 AC5 11 ASN A 186  GLY A 252  THR A 253  GLY A 254                    
   3 AC5 11 ASP A 255  HOH A 441  HOH A 516                               

>  <ORIGX1>
      1.000000  0.000000  0.000000        0.00000                         

>  <ORIGX2>
      0.000000  1.000000  0.000000        0.00000                         

>  <ORIGX3>
      0.000000  0.000000  1.000000        0.00000                         

>  <SCALE1>
      0.020134  0.000000  0.000000        0.00000                         

>  <SCALE2>
      0.000000  0.014781  0.000000        0.00000                         

>  <SCALE3>
      0.000000  0.000000  0.013328        0.00000                         

>  <MASTER>
      293    0    5   16    9    0   12    6 2290    1   32   21          

$$$$
