start_structures/Ligand_Substrate/Ligand_Complex_Stripped/J00_7E9A.pdb
 OpenBabel08222315203D

 21 22  0  0  1  0  0  0  0  0999 V2000
   96.5660    5.9690  220.1910 N   0  0  0  0  0  0  0  0  0  0  0  0
   97.2180    5.0080  219.3180 C   0  0  2  0  0  0  0  0  0  0  0  0
   98.4500    5.5410  218.6320 C   0  0  0  0  0  0  0  0  0  0  0  0
   99.1550    4.7500  218.0070 O   0  0  0  0  0  0  0  0  0  0  0  0
   96.2610    4.5350  218.2420 C   0  0  0  0  0  0  0  0  0  0  0  0
   95.2570    3.7260  218.8110 O   0  0  0  0  0  0  0  0  0  0  0  0
   90.9340    1.9040  220.1700 C   0  0  0  0  0  0  0  0  0  0  0  0
   90.2340    1.7840  219.0080 C   0  0  0  0  0  0  0  0  0  0  0  0
   90.6290    2.4310  217.8550 C   0  0  0  0  0  0  0  0  0  0  0  0
   91.7700    3.2580  217.8580 C   0  0  0  0  0  0  0  0  0  0  0  0
   92.4570    3.3470  218.9950 C   0  0  0  0  0  0  0  0  0  0  0  0
   92.0470    2.6890  220.1770 C   0  0  0  0  0  0  0  0  0  0  0  0
   93.6240    4.3300  218.7670 B   0  0  2  0  0  0  0  0  0  0  0  0
   93.6350    4.6210  217.3810 O   0  0  0  0  0  0  0  0  0  0  0  0
   92.4700    4.0670  216.7550 C   0  0  2  0  0  0  0  0  0  0  0  0
   91.7530    5.1810  216.0870 C   0  0  0  0  0  0  0  0  0  0  0  0
   90.4600    5.4030  216.2060 C   0  0  0  0  0  0  0  0  0  0  0  0
   92.5950    6.0950  215.1960 C   0  0  0  0  0  0  0  0  0  0  0  0
   92.4270    7.3370  215.1890 O   0  0  0  0  0  0  0  0  0  0  0  0
   93.4720    5.5880  214.4550 O   0  5  0  0  0  0  0  0  0  0  0  0
   93.9990    5.4550  219.4380 O   0  0  0  0  0  0  0  0  0  0  0  0
  2  1  1  6  0  0  0
  3  2  1  0  0  0  0
  4  3  2  0  0  0  0
  5  6  1  0  0  0  0
  5  2  1  0  0  0  0
  6 13  1  0  0  0  0
  7  8  2  0  0  0  0
  7 12  1  0  0  0  0
  8  9  1  0  0  0  0
  9 10  2  0  0  0  0
 10 11  1  0  0  0  0
 10 15  1  0  0  0  0
 11 12  2  0  0  0  0
 11 13  1  0  0  0  0
 13 14  1  0  0  0  0
 13 21  1  1  0  0  0
 14 15  1  0  0  0  0
 15 16  1  1  0  0  0
 16 17  2  0  0  0  0
 16 18  1  0  0  0  0
 18 19  2  0  0  0  0
 18 20  1  0  0  0  0
M  CHG  1  20  -1
M  END
>  <HEADER>
    HYDROLASE                               03-MAR-21   7E9A              

>  <TITLE>
    CRYSTAL STRUCTURE OF KPC-2 IN COMPLEX WITH (S)-2-(1-HYDROXY-1,3-      
   2 DIHYDROBENZO[C][1,2]OXABOROL-3-YL)ACRYLIC ACID (4A-(S))              

>  <COMPND>
    MOL_ID: 1;                                                            
   2 MOLECULE: BETA-LACTAMASE;                                            
   3 CHAIN: A, B, C, D;                                                   
   4 SYNONYM: SERINE-BETA-LACTAMASE KPC-2;                                
   5 EC: 3.5.2.6;                                                         
   6 ENGINEERED: YES                                                      

>  <SOURCE>
    MOL_ID: 1;                                                            
   2 ORGANISM_SCIENTIFIC: KLEBSIELLA PNEUMONIAE;                          
   3 ORGANISM_TAXID: 573;                                                 
   4 GENE: BLAKPC2;                                                       
   5 EXPRESSION_SYSTEM: ESCHERICHIA COLI BL21(DE3);                       
   6 EXPRESSION_SYSTEM_TAXID: 469008                                      

>  <KEYWDS>
    BETA-LACTAMASE, SERINE-BETA-LACTAMASE KPC-2, KPC-2, CARBAPENEMASE,    
   2 HYDROLASE                                                            

>  <EXPDTA>
    X-RAY DIFFRACTION                                                     

>  <AUTHOR>
    G.-B.LI,Y.-H.YAN                                                      

>  <REVDAT>
   3   18-AUG-21 7E9A    1       JRNL                                     
   2   11-AUG-21 7E9A    1       JRNL                                     
   1   04-AUG-21 7E9A    0                                                

>  <JRNL>
      AUTH   Y.C.XIAO,X.P.CHEN,J.DENG,Y.H.YAN,K.R.ZHU,G.LI,J.L.YU,J.BREM, 
      AUTH 2 F.CHEN,C.J.SCHOFIELD,G.B.LI                                  
      TITL   DESIGN AND ENANTIOSELECTIVE SYNTHESIS OF 3-( ALPHA-ACRYLIC   
      TITL 2 ACID) BENZOXABOROLES TO COMBAT CARBAPENEMASE RESISTANCE.     
      REF    CHEM.COMMUN.(CAMB.)           V.  57  7709 2021              
      REFN                   ESSN 1364-548X                               
      PMID   34259249                                                     
      DOI    10.1039/D1CC03026D                                           

>  <REMARK>
   2                                                                      
   2 RESOLUTION.    2.25 ANGSTROMS.                                       
   3                                                                      
   3 REFINEMENT.                                                          
   3   PROGRAM     : PHENIX 1.10.1_2155                                   
   3   AUTHORS     : PAUL ADAMS,PAVEL AFONINE,VINCENT CHEN,IAN            
   3               : DAVIS,KRESHNA GOPAL,RALF GROSSE-KUNSTLEVE,           
   3               : LI-WEI HUNG,ROBERT IMMORMINO,TOM IOERGER,            
   3               : AIRLIE MCCOY,ERIK MCKEE,NIGEL MORIARTY,              
   3               : REETAL PAI,RANDY READ,JANE RICHARDSON,               
   3               : DAVID RICHARDSON,TOD ROMO,JIM SACCHETTINI,           
   3               : NICHOLAS SAUTER,JACOB SMITH,LAURENT                  
   3               : STORONI,TOM TERWILLIGER,PETER ZWART                  
   3                                                                      
   3    REFINEMENT TARGET : ML                                            
   3                                                                      
   3  DATA USED IN REFINEMENT.                                            
   3   RESOLUTION RANGE HIGH (ANGSTROMS) : 2.25                           
   3   RESOLUTION RANGE LOW  (ANGSTROMS) : 47.43                          
   3   MIN(FOBS/SIGMA_FOBS)              : 1.340                          
   3   COMPLETENESS FOR RANGE        (%) : 95.5                           
   3   NUMBER OF REFLECTIONS             : 67847                          
   3                                                                      
   3  FIT TO DATA USED IN REFINEMENT.                                     
   3   R VALUE     (WORKING + TEST SET) : 0.182                           
   3   R VALUE            (WORKING SET) : 0.180                           
   3   FREE R VALUE                     : 0.221                           
   3   FREE R VALUE TEST SET SIZE   (%) : 2.950                           
   3   FREE R VALUE TEST SET COUNT      : 2004                            
   3                                                                      
   3  FIT TO DATA USED IN REFINEMENT (IN BINS).                           
   3   BIN  RESOLUTION RANGE  COMPL.    NWORK NFREE   RWORK  RFREE        
   3     1 47.4300 -  5.4206    0.98     5052   151  0.1855 0.2254        
   3     2  5.4206 -  4.3034    1.00     4973   153  0.1493 0.1678        
   3     3  4.3034 -  3.7597    1.00     4937   154  0.1508 0.1873        
   3     4  3.7597 -  3.4160    1.00     4929   152  0.1689 0.1924        
   3     5  3.4160 -  3.1713    1.00     4916   148  0.1908 0.2420        
   3     6  3.1713 -  2.9843    1.00     4900   149  0.2022 0.2461        
   3     7  2.9843 -  2.8349    1.00     4925   148  0.2026 0.2651        
   3     8  2.8349 -  2.7115    1.00     4872   152  0.1869 0.2442        
   3     9  2.7115 -  2.6071    1.00     4900   151  0.1886 0.2397        
   3    10  2.6071 -  2.5172    1.00     4891   150  0.1922 0.2716        
   3    11  2.5172 -  2.4385    1.00     4858   145  0.2026 0.2427        
   3    12  2.4385 -  2.3688    0.99     4833   144  0.2191 0.2518        
   3    13  2.3688 -  2.3064    0.84     4115   126  0.2193 0.2816        
   3    14  2.3064 -  2.2501    0.56     2742    81  0.2012 0.2790        
   3                                                                      
   3  BULK SOLVENT MODELLING.                                             
   3   METHOD USED        : FLAT BULK SOLVENT MODEL                       
   3   SOLVENT RADIUS     : 1.11                                          
   3   SHRINKAGE RADIUS   : 0.90                                          
   3   K_SOL              : NULL                                          
   3   B_SOL              : NULL                                          
   3                                                                      
   3  ERROR ESTIMATES.                                                    
   3   COORDINATE ERROR (MAXIMUM-LIKELIHOOD BASED)     : 0.220            
   3   PHASE ERROR (DEGREES, MAXIMUM-LIKELIHOOD BASED) : 21.970           
   3                                                                      
   3  B VALUES.                                                           
   3   FROM WILSON PLOT           (A**2) : 30.48                          
   3   MEAN B VALUE      (OVERALL, A**2) : 34.81                          
   3   OVERALL ANISOTROPIC B VALUE.                                       
   3    B11 (A**2) : NULL                                                 
   3    B22 (A**2) : NULL                                                 
   3    B33 (A**2) : NULL                                                 
   3    B12 (A**2) : NULL                                                 
   3    B13 (A**2) : NULL                                                 
   3    B23 (A**2) : NULL                                                 
   3                                                                      
   3  TWINNING INFORMATION.                                               
   3   FRACTION: NULL                                                     
   3   OPERATOR: NULL                                                     
   3                                                                      
   3  DEVIATIONS FROM IDEAL VALUES.                                       
   3                 RMSD          COUNT                                  
   3   BOND      :  0.012           8171                                  
   3   ANGLE     :  1.241          11097                                  
   3   CHIRALITY :  0.065           1248                                  
   3   PLANARITY :  0.007           1444                                  
   3   DIHEDRAL  : 16.333           4816                                  
   3                                                                      
   3  TLS DETAILS                                                         
   3   NUMBER OF TLS GROUPS  : NULL                                       
   3                                                                      
   3  NCS DETAILS                                                         
   3   NUMBER OF NCS GROUPS : NULL                                        
   3                                                                      
   3  OTHER REFINEMENT REMARKS: NULL                                      
   4                                                                      
   4 7E9A COMPLIES WITH FORMAT V. 3.30, 13-JUL-11                         
 100                                                                      
 100 THIS ENTRY HAS BEEN PROCESSED BY PDBJ ON 08-MAR-21.                  
 100 THE DEPOSITION ID IS D_1300021018.                                   
 200                                                                      
 200 EXPERIMENTAL DETAILS                                                 
 200  EXPERIMENT TYPE                : X-RAY DIFFRACTION                  
 200  DATE OF DATA COLLECTION        : 24-DEC-18                          
 200  TEMPERATURE           (KELVIN) : 195                                
 200  PH                             : NULL                               
 200  NUMBER OF CRYSTALS USED        : 1                                  
 200                                                                      
 200  SYNCHROTRON              (Y/N) : Y                                  
 200  RADIATION SOURCE               : SSRF                               
 200  BEAMLINE                       : BL19U1                             
 200  X-RAY GENERATOR MODEL          : NULL                               
 200  MONOCHROMATIC OR LAUE    (M/L) : M                                  
 200  WAVELENGTH OR RANGE        (A) : 1                                  
 200  MONOCHROMATOR                  : NULL                               
 200  OPTICS                         : NULL                               
 200                                                                      
 200  DETECTOR TYPE                  : PIXEL                              
 200  DETECTOR MANUFACTURER          : DECTRIS PILATUS3 X CDTE 1M         
 200  INTENSITY-INTEGRATION SOFTWARE : HKL-2000                           
 200  DATA SCALING SOFTWARE          : SCALEPACK                          
 200                                                                      
 200  NUMBER OF UNIQUE REFLECTIONS   : 70988                              
 200  RESOLUTION RANGE HIGH      (A) : 2.250                              
 200  RESOLUTION RANGE LOW       (A) : 50.000                             
 200  REJECTION CRITERIA  (SIGMA(I)) : NULL                               
 200                                                                      
 200 OVERALL.                                                             
 200  COMPLETENESS FOR RANGE     (%) : 100.0                              
 200  DATA REDUNDANCY                : 19.90                              
 200  R MERGE                    (I) : 0.23900                            
 200  R SYM                      (I) : NULL                               
 200  <I/SIGMA(I)> FOR THE DATA SET  : 3.6000                             
 200                                                                      
 200 IN THE HIGHEST RESOLUTION SHELL.                                     
 200  HIGHEST RESOLUTION SHELL, RANGE HIGH (A) : 2.25                     
 200  HIGHEST RESOLUTION SHELL, RANGE LOW  (A) : 2.29                     
 200  COMPLETENESS FOR SHELL     (%) : 100.0                              
 200  DATA REDUNDANCY IN SHELL       : 16.50                              
 200  R MERGE FOR SHELL          (I) : 1.70100                            
 200  R SYM FOR SHELL            (I) : NULL                               
 200  <I/SIGMA(I)> FOR SHELL         : NULL                               
 200                                                                      
 200 DIFFRACTION PROTOCOL: SINGLE WAVELENGTH                              
 200 METHOD USED TO DETERMINE THE STRUCTURE: MOLECULAR REPLACEMENT        
 200 SOFTWARE USED: PHASER 2.6.0                                          
 200 STARTING MODEL: 6JN3                                                 
 200                                                                      
 200 REMARK: NULL                                                         
 280                                                                      
 280 CRYSTAL                                                              
 280 SOLVENT CONTENT, VS   (%): 63.13                                     
 280 MATTHEWS COEFFICIENT, VM (ANGSTROMS**3/DA): 3.34                     
 280                                                                      
 280 CRYSTALLIZATION CONDITIONS: 32-35% PEG 8000, 0.1M LITHIUM            
 280  SULPHATE, 0.05M SODIUM ACETATE (PH 4.5), VAPOR DIFFUSION,           
 280  HANGING DROP, TEMPERATURE 293K                                      
 290                                                                      
 290 CRYSTALLOGRAPHIC SYMMETRY                                            
 290 SYMMETRY OPERATORS FOR SPACE GROUP: P 3 2 1                          
 290                                                                      
 290      SYMOP   SYMMETRY                                                
 290     NNNMMM   OPERATOR                                                
 290       1555   X,Y,Z                                                   
 290       2555   -Y,X-Y,Z                                                
 290       3555   -X+Y,-X,Z                                               
 290       4555   Y,X,-Z                                                  
 290       5555   X-Y,-Y,-Z                                               
 290       6555   -X,-X+Y,-Z                                              
 290                                                                      
 290     WHERE NNN -> OPERATOR NUMBER                                     
 290           MMM -> TRANSLATION VECTOR                                  
 290                                                                      
 290 CRYSTALLOGRAPHIC SYMMETRY TRANSFORMATIONS                            
 290 THE FOLLOWING TRANSFORMATIONS OPERATE ON THE ATOM/HETATM             
 290 RECORDS IN THIS ENTRY TO PRODUCE CRYSTALLOGRAPHICALLY                
 290 RELATED MOLECULES.                                                   
 290   SMTRY1   1  1.000000  0.000000  0.000000        0.00000            
 290   SMTRY2   1  0.000000  1.000000  0.000000        0.00000            
 290   SMTRY3   1  0.000000  0.000000  1.000000        0.00000            
 290   SMTRY1   2 -0.500000 -0.866025  0.000000        0.00000            
 290   SMTRY2   2  0.866025 -0.500000  0.000000        0.00000            
 290   SMTRY3   2  0.000000  0.000000  1.000000        0.00000            
 290   SMTRY1   3 -0.500000  0.866025  0.000000        0.00000            
 290   SMTRY2   3 -0.866025 -0.500000  0.000000        0.00000            
 290   SMTRY3   3  0.000000  0.000000  1.000000        0.00000            
 290   SMTRY1   4 -0.500000  0.866025  0.000000        0.00000            
 290   SMTRY2   4  0.866025  0.500000  0.000000        0.00000            
 290   SMTRY3   4  0.000000  0.000000 -1.000000        0.00000            
 290   SMTRY1   5  1.000000  0.000000  0.000000        0.00000            
 290   SMTRY2   5  0.000000 -1.000000  0.000000        0.00000            
 290   SMTRY3   5  0.000000  0.000000 -1.000000        0.00000            
 290   SMTRY1   6 -0.500000 -0.866025  0.000000        0.00000            
 290   SMTRY2   6 -0.866025  0.500000  0.000000        0.00000            
 290   SMTRY3   6  0.000000  0.000000 -1.000000        0.00000            
 290                                                                      
 290 REMARK: NULL                                                         
 300                                                                      
 300 BIOMOLECULE: 1, 2, 3, 4                                              
 300 SEE REMARK 350 FOR THE AUTHOR PROVIDED AND/OR PROGRAM                
 300 GENERATED ASSEMBLY INFORMATION FOR THE STRUCTURE IN                  
 300 THIS ENTRY. THE REMARK MAY ALSO PROVIDE INFORMATION ON               
 300 BURIED SURFACE AREA.                                                 
 350                                                                      
 350 COORDINATES FOR A COMPLETE MULTIMER REPRESENTING THE KNOWN           
 350 BIOLOGICALLY SIGNIFICANT OLIGOMERIZATION STATE OF THE                
 350 MOLECULE CAN BE GENERATED BY APPLYING BIOMT TRANSFORMATIONS          
 350 GIVEN BELOW.  BOTH NON-CRYSTALLOGRAPHIC AND                          
 350 CRYSTALLOGRAPHIC OPERATIONS ARE GIVEN.                               
 350                                                                      
 350 BIOMOLECULE: 1                                                       
 350 AUTHOR DETERMINED BIOLOGICAL UNIT: MONOMERIC                         
 350 SOFTWARE DETERMINED QUATERNARY STRUCTURE: MONOMERIC                  
 350 SOFTWARE USED: PISA                                                  
 350 TOTAL BURIED SURFACE AREA: 0 ANGSTROM**2                             
 350 SURFACE AREA OF THE COMPLEX: 10930 ANGSTROM**2                       
 350 CHANGE IN SOLVENT FREE ENERGY: 0.0 KCAL/MOL                          
 350 APPLY THE FOLLOWING TO CHAINS: A                                     
 350   BIOMT1   1  1.000000  0.000000  0.000000        0.00000            
 350   BIOMT2   1  0.000000  1.000000  0.000000        0.00000            
 350   BIOMT3   1  0.000000  0.000000  1.000000        0.00000            
 350                                                                      
 350 BIOMOLECULE: 2                                                       
 350 AUTHOR DETERMINED BIOLOGICAL UNIT: MONOMERIC                         
 350 SOFTWARE DETERMINED QUATERNARY STRUCTURE: MONOMERIC                  
 350 SOFTWARE USED: PISA                                                  
 350 TOTAL BURIED SURFACE AREA: 250 ANGSTROM**2                           
 350 SURFACE AREA OF THE COMPLEX: 10610 ANGSTROM**2                       
 350 CHANGE IN SOLVENT FREE ENERGY: -2.0 KCAL/MOL                         
 350 APPLY THE FOLLOWING TO CHAINS: B                                     
 350   BIOMT1   1  1.000000  0.000000  0.000000        0.00000            
 350   BIOMT2   1  0.000000  1.000000  0.000000        0.00000            
 350   BIOMT3   1  0.000000  0.000000  1.000000        0.00000            
 350                                                                      
 350 BIOMOLECULE: 3                                                       
 350 AUTHOR DETERMINED BIOLOGICAL UNIT: MONOMERIC                         
 350 SOFTWARE DETERMINED QUATERNARY STRUCTURE: MONOMERIC                  
 350 SOFTWARE USED: PISA                                                  
 350 TOTAL BURIED SURFACE AREA: 0 ANGSTROM**2                             
 350 SURFACE AREA OF THE COMPLEX: 10930 ANGSTROM**2                       
 350 CHANGE IN SOLVENT FREE ENERGY: 0.0 KCAL/MOL                          
 350 APPLY THE FOLLOWING TO CHAINS: C                                     
 350   BIOMT1   1  1.000000  0.000000  0.000000        0.00000            
 350   BIOMT2   1  0.000000  1.000000  0.000000        0.00000            
 350   BIOMT3   1  0.000000  0.000000  1.000000        0.00000            
 350                                                                      
 350 BIOMOLECULE: 4                                                       
 350 AUTHOR DETERMINED BIOLOGICAL UNIT: MONOMERIC                         
 350 SOFTWARE DETERMINED QUATERNARY STRUCTURE: MONOMERIC                  
 350 SOFTWARE USED: PISA                                                  
 350 TOTAL BURIED SURFACE AREA: 220 ANGSTROM**2                           
 350 SURFACE AREA OF THE COMPLEX: 10630 ANGSTROM**2                       
 350 CHANGE IN SOLVENT FREE ENERGY: -2.0 KCAL/MOL                         
 350 APPLY THE FOLLOWING TO CHAINS: D                                     
 350   BIOMT1   1  1.000000  0.000000  0.000000        0.00000            
 350   BIOMT2   1  0.000000  1.000000  0.000000        0.00000            
 350   BIOMT3   1  0.000000  0.000000  1.000000        0.00000            
 465                                                                      
 465 MISSING RESIDUES                                                     
 465 THE FOLLOWING RESIDUES WERE NOT LOCATED IN THE                       
 465 EXPERIMENT. (M=MODEL NUMBER; RES=RESIDUE NAME; C=CHAIN               
 465 IDENTIFIER; SSSEQ=SEQUENCE NUMBER; I=INSERTION CODE.)                
 465                                                                      
 465   M RES C SSSEQI                                                     
 465     SER B    25                                                      
 465     THR B    26                                                      
 465     ASN B    27                                                      
 465     LEU D    28                                                      
 465     VAL D    29                                                      
 470                                                                      
 470 MISSING ATOM                                                         
 470 THE FOLLOWING RESIDUES HAVE MISSING ATOMS (M=MODEL NUMBER;           
 470 RES=RESIDUE NAME; C=CHAIN IDENTIFIER; SSEQ=SEQUENCE NUMBER;          
 470 I=INSERTION CODE):                                                   
 470   M RES CSSEQI  ATOMS                                                
 470     SER A  25    OG                                                  
 470     LYS A  35    CD   CE   NZ                                        
 470     GLY A 291    CA   C    O                                         
 470     LYS B  35    CD   CE   NZ                                        
 470     GLY B 291    CA   C    O                                         
 470     SER C  25    OG                                                  
 470     LYS C  35    CD   CE   NZ                                        
 470     GLY C 291    CA   C    O                                         
 470     SER D  25    OG                                                  
 470     LYS D  35    CD   CE   NZ                                        
 470     GLY D 291    CA   C    O                                         
 500                                                                      
 500 GEOMETRY AND STEREOCHEMISTRY                                         
 500 SUBTOPIC: CLOSE CONTACTS IN SAME ASYMMETRIC UNIT                     
 500                                                                      
 500 THE FOLLOWING ATOMS ARE IN CLOSE CONTACT.                            
 500                                                                      
 500  ATM1  RES C  SSEQI   ATM2  RES C  SSEQI           DISTANCE          
 500   O    HOH B   401     O    HOH B   475              1.76            
 500   O1   PEG B   304     O    HOH B   401              1.80            
 500   O    HOH D   402     O    HOH D   427              1.99            
 500   O    HOH A   508     O    HOH A   514              2.02            
 500   O    HOH B   491     O    HOH B   492              2.02            
 500   O    HOH B   483     O    HOH B   484              2.04            
 500   O    ASN D    27     O    HOH D   401              2.08            
 500   O    HOH D   497     O    HOH D   500              2.12            
 500   OE1  GLU D   110     O    HOH D   402              2.12            
 500   O    HOH B   474     O    HOH B   487              2.14            
 500   O    HOH A   465     O    HOH A   483              2.14            
 500   O    HOH D   489     O    HOH D   505              2.17            
 500   OE1  GLN B    38     O    HOH B   402              2.17            
 500   O    HOH D   493     O    HOH D   501              2.19            
 500                                                                      
 500 REMARK: NULL                                                         
 500                                                                      
 500 GEOMETRY AND STEREOCHEMISTRY                                         
 500 SUBTOPIC: COVALENT BOND LENGTHS                                      
 500                                                                      
 500 THE STEREOCHEMICAL PARAMETERS OF THE FOLLOWING RESIDUES              
 500 HAVE VALUES WHICH DEVIATE FROM EXPECTED VALUES BY MORE               
 500 THAN 6*RMSD (M=MODEL NUMBER; RES=RESIDUE NAME; C=CHAIN               
 500 IDENTIFIER; SSEQ=SEQUENCE NUMBER; I=INSERTION CODE).                 
 500                                                                      
 500 STANDARD TABLE:                                                      
 500 FORMAT: (10X,I3,1X,2(A3,1X,A1,I4,A1,1X,A4,3X),1X,F6.3)               
 500                                                                      
 500 EXPECTED VALUES PROTEIN: ENGH AND HUBER, 1999                        
 500 EXPECTED VALUES NUCLEIC ACID: CLOWNEY ET AL 1996                     
 500                                                                      
 500  M RES CSSEQI ATM1   RES CSSEQI ATM2   DEVIATION                     
 500    GLU B  37   CB    GLU B  37   CG     -0.120                       
 500                                                                      
 500 REMARK: NULL                                                         
 500                                                                      
 500 GEOMETRY AND STEREOCHEMISTRY                                         
 500 SUBTOPIC: COVALENT BOND ANGLES                                       
 500                                                                      
 500 THE STEREOCHEMICAL PARAMETERS OF THE FOLLOWING RESIDUES              
 500 HAVE VALUES WHICH DEVIATE FROM EXPECTED VALUES BY MORE               
 500 THAN 6*RMSD (M=MODEL NUMBER; RES=RESIDUE NAME; C=CHAIN               
 500 IDENTIFIER; SSEQ=SEQUENCE NUMBER; I=INSERTION CODE).                 
 500                                                                      
 500 STANDARD TABLE:                                                      
 500 FORMAT: (10X,I3,1X,A3,1X,A1,I4,A1,3(1X,A4,2X),12X,F5.1)              
 500                                                                      
 500 EXPECTED VALUES PROTEIN: ENGH AND HUBER, 1999                        
 500 EXPECTED VALUES NUCLEIC ACID: CLOWNEY ET AL 1996                     
 500                                                                      
 500  M RES CSSEQI ATM1   ATM2   ATM3                                     
 500    ARG B 204   NE  -  CZ  -  NH1 ANGL. DEV. =   3.4 DEGREES          
 500    ARG B 204   NE  -  CZ  -  NH2 ANGL. DEV. =  -3.8 DEGREES          
 500    VAL C  29   CG1 -  CB  -  CG2 ANGL. DEV. =   9.8 DEGREES          
 500    GLU C  31   C   -  N   -  CA  ANGL. DEV. =  16.6 DEGREES          
 500    ARG D  96   NE  -  CZ  -  NH1 ANGL. DEV. =   3.0 DEGREES          
 500                                                                      
 500 REMARK: NULL                                                         
 500                                                                      
 500 GEOMETRY AND STEREOCHEMISTRY                                         
 500 SUBTOPIC: TORSION ANGLES                                             
 500                                                                      
 500 TORSION ANGLES OUTSIDE THE EXPECTED RAMACHANDRAN REGIONS:            
 500 (M=MODEL NUMBER; RES=RESIDUE NAME; C=CHAIN IDENTIFIER;               
 500 SSEQ=SEQUENCE NUMBER; I=INSERTION CODE).                             
 500                                                                      
 500 STANDARD TABLE:                                                      
 500 FORMAT:(10X,I3,1X,A3,1X,A1,I4,A1,4X,F7.2,3X,F7.2)                    
 500                                                                      
 500 EXPECTED VALUES: GJ KLEYWEGT AND TA JONES (1996). PHI/PSI-           
 500 CHOLOGY: RAMACHANDRAN REVISITED. STRUCTURE 4, 1395 - 1400            
 500                                                                      
 500  M RES CSSEQI        PSI       PHI                                   
 500    ASN A  27      106.75   -163.52                                   
 500    CYS A  69     -142.75     57.24                                   
 500    TRP A 105       73.39     52.79                                   
 500    ARG A 220     -121.51   -115.47                                   
 500    VAL B  29      -60.83    127.72                                   
 500    CYS B  69     -139.76     51.28                                   
 500    ARG B 220     -119.02   -116.16                                   
 500    LEU B 290      -73.21    -76.04                                   
 500    THR C  26      -32.92    178.77                                   
 500    VAL C  29      143.71    154.21                                   
 500    ALA C  30      121.61   -179.38                                   
 500    CYS C  69     -146.66     52.65                                   
 500    ASN C 100      -45.82    -17.77                                   
 500    TRP C 105       82.09     50.14                                   
 500    SER C 106       57.77   -146.35                                   
 500    ARG C 220     -122.04   -121.94                                   
 500    CYS D  69     -146.05     57.72                                   
 500    ARG D  96       75.81   -105.20                                   
 500    TRP D 105       75.66     51.96                                   
 500    ARG D 220     -116.71   -113.28                                   
 500                                                                      
 500 REMARK: NULL                                                         

>  <DBREF>
 7E9A A   26   291  UNP    Q93LQ9   Q93LQ9_KLEPN    26    289             
 7E9A B   26   291  UNP    Q93LQ9   Q93LQ9_KLEPN    26    289             
 7E9A C   26   291  UNP    Q93LQ9   Q93LQ9_KLEPN    26    289             
 7E9A D   26   291  UNP    Q93LQ9   Q93LQ9_KLEPN    26    289             

>  <SEQADV>
 7E9A SER A   25  UNP  Q93LQ9              EXPRESSION TAG                 
 7E9A SER B   25  UNP  Q93LQ9              EXPRESSION TAG                 
 7E9A SER C   25  UNP  Q93LQ9              EXPRESSION TAG                 
 7E9A SER D   25  UNP  Q93LQ9              EXPRESSION TAG                 

>  <SEQRES>
   1 A  265  SER THR ASN LEU VAL ALA GLU PRO PHE ALA LYS LEU GLU          
   2 A  265  GLN ASP PHE GLY GLY SER ILE GLY VAL TYR ALA MET ASP          
   3 A  265  THR GLY SER GLY ALA THR VAL SER TYR ARG ALA GLU GLU          
   4 A  265  ARG PHE PRO LEU CYS SER SER PHE LYS GLY PHE LEU ALA          
   5 A  265  ALA ALA VAL LEU ALA ARG SER GLN GLN GLN ALA GLY LEU          
   6 A  265  LEU ASP THR PRO ILE ARG TYR GLY LYS ASN ALA LEU VAL          
   7 A  265  PRO TRP SER PRO ILE SER GLU LYS TYR LEU THR THR GLY          
   8 A  265  MET THR VAL ALA GLU LEU SER ALA ALA ALA VAL GLN TYR          
   9 A  265  SER ASP ASN ALA ALA ALA ASN LEU LEU LEU LYS GLU LEU          
  10 A  265  GLY GLY PRO ALA GLY LEU THR ALA PHE MET ARG SER ILE          
  11 A  265  GLY ASP THR THR PHE ARG LEU ASP ARG TRP GLU LEU GLU          
  12 A  265  LEU ASN SER ALA ILE PRO GLY ASP ALA ARG ASP THR SER          
  13 A  265  SER PRO ARG ALA VAL THR GLU SER LEU GLN LYS LEU THR          
  14 A  265  LEU GLY SER ALA LEU ALA ALA PRO GLN ARG GLN GLN PHE          
  15 A  265  VAL ASP TRP LEU LYS GLY ASN THR THR GLY ASN HIS ARG          
  16 A  265  ILE ARG ALA ALA VAL PRO ALA ASP TRP ALA VAL GLY ASP          
  17 A  265  LYS THR GLY THR CYS GLY VAL TYR GLY THR ALA ASN ASP          
  18 A  265  TYR ALA VAL VAL TRP PRO THR GLY ARG ALA PRO ILE VAL          
  19 A  265  LEU ALA VAL TYR THR ARG ALA PRO ASN LYS ASP ASP LYS          
  20 A  265  HIS SER GLU ALA VAL ILE ALA ALA ALA ALA ARG LEU ALA          
  21 A  265  LEU GLU GLY LEU GLY                                          
   1 B  265  SER THR ASN LEU VAL ALA GLU PRO PHE ALA LYS LEU GLU          
   2 B  265  GLN ASP PHE GLY GLY SER ILE GLY VAL TYR ALA MET ASP          
   3 B  265  THR GLY SER GLY ALA THR VAL SER TYR ARG ALA GLU GLU          
   4 B  265  ARG PHE PRO LEU CYS SER SER PHE LYS GLY PHE LEU ALA          
   5 B  265  ALA ALA VAL LEU ALA ARG SER GLN GLN GLN ALA GLY LEU          
   6 B  265  LEU ASP THR PRO ILE ARG TYR GLY LYS ASN ALA LEU VAL          
   7 B  265  PRO TRP SER PRO ILE SER GLU LYS TYR LEU THR THR GLY          
   8 B  265  MET THR VAL ALA GLU LEU SER ALA ALA ALA VAL GLN TYR          
   9 B  265  SER ASP ASN ALA ALA ALA ASN LEU LEU LEU LYS GLU LEU          
  10 B  265  GLY GLY PRO ALA GLY LEU THR ALA PHE MET ARG SER ILE          
  11 B  265  GLY ASP THR THR PHE ARG LEU ASP ARG TRP GLU LEU GLU          
  12 B  265  LEU ASN SER ALA ILE PRO GLY ASP ALA ARG ASP THR SER          
  13 B  265  SER PRO ARG ALA VAL THR GLU SER LEU GLN LYS LEU THR          
  14 B  265  LEU GLY SER ALA LEU ALA ALA PRO GLN ARG GLN GLN PHE          
  15 B  265  VAL ASP TRP LEU LYS GLY ASN THR THR GLY ASN HIS ARG          
  16 B  265  ILE ARG ALA ALA VAL PRO ALA ASP TRP ALA VAL GLY ASP          
  17 B  265  LYS THR GLY THR CYS GLY VAL TYR GLY THR ALA ASN ASP          
  18 B  265  TYR ALA VAL VAL TRP PRO THR GLY ARG ALA PRO ILE VAL          
  19 B  265  LEU ALA VAL TYR THR ARG ALA PRO ASN LYS ASP ASP LYS          
  20 B  265  HIS SER GLU ALA VAL ILE ALA ALA ALA ALA ARG LEU ALA          
  21 B  265  LEU GLU GLY LEU GLY                                          
   1 C  265  SER THR ASN LEU VAL ALA GLU PRO PHE ALA LYS LEU GLU          
   2 C  265  GLN ASP PHE GLY GLY SER ILE GLY VAL TYR ALA MET ASP          
   3 C  265  THR GLY SER GLY ALA THR VAL SER TYR ARG ALA GLU GLU          
   4 C  265  ARG PHE PRO LEU CYS SER SER PHE LYS GLY PHE LEU ALA          
   5 C  265  ALA ALA VAL LEU ALA ARG SER GLN GLN GLN ALA GLY LEU          
   6 C  265  LEU ASP THR PRO ILE ARG TYR GLY LYS ASN ALA LEU VAL          
   7 C  265  PRO TRP SER PRO ILE SER GLU LYS TYR LEU THR THR GLY          
   8 C  265  MET THR VAL ALA GLU LEU SER ALA ALA ALA VAL GLN TYR          
   9 C  265  SER ASP ASN ALA ALA ALA ASN LEU LEU LEU LYS GLU LEU          
  10 C  265  GLY GLY PRO ALA GLY LEU THR ALA PHE MET ARG SER ILE          
  11 C  265  GLY ASP THR THR PHE ARG LEU ASP ARG TRP GLU LEU GLU          
  12 C  265  LEU ASN SER ALA ILE PRO GLY ASP ALA ARG ASP THR SER          
  13 C  265  SER PRO ARG ALA VAL THR GLU SER LEU GLN LYS LEU THR          
  14 C  265  LEU GLY SER ALA LEU ALA ALA PRO GLN ARG GLN GLN PHE          
  15 C  265  VAL ASP TRP LEU LYS GLY ASN THR THR GLY ASN HIS ARG          
  16 C  265  ILE ARG ALA ALA VAL PRO ALA ASP TRP ALA VAL GLY ASP          
  17 C  265  LYS THR GLY THR CYS GLY VAL TYR GLY THR ALA ASN ASP          
  18 C  265  TYR ALA VAL VAL TRP PRO THR GLY ARG ALA PRO ILE VAL          
  19 C  265  LEU ALA VAL TYR THR ARG ALA PRO ASN LYS ASP ASP LYS          
  20 C  265  HIS SER GLU ALA VAL ILE ALA ALA ALA ALA ARG LEU ALA          
  21 C  265  LEU GLU GLY LEU GLY                                          
   1 D  265  SER THR ASN LEU VAL ALA GLU PRO PHE ALA LYS LEU GLU          
   2 D  265  GLN ASP PHE GLY GLY SER ILE GLY VAL TYR ALA MET ASP          
   3 D  265  THR GLY SER GLY ALA THR VAL SER TYR ARG ALA GLU GLU          
   4 D  265  ARG PHE PRO LEU CYS SER SER PHE LYS GLY PHE LEU ALA          
   5 D  265  ALA ALA VAL LEU ALA ARG SER GLN GLN GLN ALA GLY LEU          
   6 D  265  LEU ASP THR PRO ILE ARG TYR GLY LYS ASN ALA LEU VAL          
   7 D  265  PRO TRP SER PRO ILE SER GLU LYS TYR LEU THR THR GLY          
   8 D  265  MET THR VAL ALA GLU LEU SER ALA ALA ALA VAL GLN TYR          
   9 D  265  SER ASP ASN ALA ALA ALA ASN LEU LEU LEU LYS GLU LEU          
  10 D  265  GLY GLY PRO ALA GLY LEU THR ALA PHE MET ARG SER ILE          
  11 D  265  GLY ASP THR THR PHE ARG LEU ASP ARG TRP GLU LEU GLU          
  12 D  265  LEU ASN SER ALA ILE PRO GLY ASP ALA ARG ASP THR SER          
  13 D  265  SER PRO ARG ALA VAL THR GLU SER LEU GLN LYS LEU THR          
  14 D  265  LEU GLY SER ALA LEU ALA ALA PRO GLN ARG GLN GLN PHE          
  15 D  265  VAL ASP TRP LEU LYS GLY ASN THR THR GLY ASN HIS ARG          
  16 D  265  ILE ARG ALA ALA VAL PRO ALA ASP TRP ALA VAL GLY ASP          
  17 D  265  LYS THR GLY THR CYS GLY VAL TYR GLY THR ALA ASN ASP          
  18 D  265  TYR ALA VAL VAL TRP PRO THR GLY ARG ALA PRO ILE VAL          
  19 D  265  LEU ALA VAL TYR THR ARG ALA PRO ASN LYS ASP ASP LYS          
  20 D  265  HIS SER GLU ALA VAL ILE ALA ALA ALA ALA ARG LEU ALA          
  21 D  265  LEU GLU GLY LEU GLY                                          

>  <HET>
 J00  A 301      15                                                       
 ACY  A 302       4                                                       
 PEG  A 303       7                                                       
 GOL  A 304       6                                                       
 GOL  A 305       6                                                       
 GOL  A 306       6                                                       
 J00  B 301      15                                                       
 PEG  B 302       7                                                       
 PEG  B 303       7                                                       
 PEG  B 304       7                                                       
 PEG  B 305       7                                                       
 GOL  B 306       6                                                       
 J00  C 301      15                                                       
 ACY  C 302       4                                                       
 PEG  C 303       7                                                       
 PEG  C 304       7                                                       
 PEG  C 305       7                                                       
 PEG  C 306       7                                                       
 GOL  C 307       6                                                       
 J00  D 301      15                                                       
 ACY  D 302       4                                                       
 GOL  D 303       6                                                       
 PEG  D 304       7                                                       

>  <HETNAM>
     J00 2-[(3S)-1-OXIDANYL-3H-2,1-BENZOXABOROL-3-YL]PROP-2-              
   2 J00  ENOIC ACID                                                      
     ACY ACETIC ACID                                                      
     PEG DI(HYDROXYETHYL)ETHER                                            
     GOL GLYCEROL                                                         

>  <HETSYN>
     J00 (S)-2-(1-HYDROXY-1,3-DIHYDROBENZO[C][1,2]OXABOROL-3-             
   2 J00  YL)ACRYLIC ACID                                                 
     GOL GLYCERIN; PROPANE-1,2,3-TRIOL                                    

>  <FORMUL>
   5  J00    4(C10 H9 B O4)                                               
   6  ACY    3(C2 H4 O2)                                                  
   7  PEG    10(C4 H10 O3)                                                
   8  GOL    6(C3 H8 O3)                                                  
  28  HOH   *368(H2 O)                                                    

>  <HELIX>
   1 AA1 ALA A   30  GLY A   41  1                                  12    
   2 AA2 SER A   71  GLN A   85  1                                  15    
   3 AA3 GLY A   98  LEU A  102  5                                   5    
   4 AA4 SER A  106  TYR A  112  1                                   7    
   5 AA5 VAL A  119  TYR A  129  1                                  11    
   6 AA6 ASP A  131  LEU A  142  1                                  12    
   7 AA7 GLY A  144  ILE A  155  1                                  12    
   8 AA8 LEU A  167  SER A  171  5                                   5    
   9 AA9 SER A  182  LEU A  195  1                                  14    
  10 AB1 ALA A  200  GLY A  213  1                                  14    
  11 AB2 ARG A  220  VAL A  225  1                                   6    
  12 AB3 SER A  275  LEU A  290  1                                  16    
  13 AB4 ALA B   30  GLY B   41  1                                  12    
  14 AB5 SER B   71  GLN B   85  1                                  15    
  15 AB6 GLY B   98  LEU B  102  5                                   5    
  16 AB7 SER B  106  TYR B  112  1                                   7    
  17 AB8 VAL B  119  TYR B  129  1                                  11    
  18 AB9 ASP B  131  LEU B  142  1                                  12    
  19 AC1 GLY B  144  ILE B  155  1                                  12    
  20 AC2 LEU B  167  SER B  171  5                                   5    
  21 AC3 SER B  182  GLY B  196  1                                  15    
  22 AC4 ALA B  200  GLY B  213  1                                  14    
  23 AC5 ARG B  220  VAL B  225  5                                   6    
  24 AC6 SER B  275  LEU B  290  1                                  16    
  25 AC7 GLU C   31  GLY C   41  1                                  11    
  26 AC8 SER C   71  SER C   84  1                                  14    
  27 AC9 GLY C   98  LEU C  102  5                                   5    
  28 AD1 SER C  106  TYR C  112  1                                   7    
  29 AD2 VAL C  119  SER C  130  1                                  12    
  30 AD3 ASP C  131  LEU C  142  1                                  12    
  31 AD4 GLY C  143  ILE C  155  1                                  13    
  32 AD5 LEU C  167  SER C  171  5                                   5    
  33 AD6 SER C  182  GLY C  196  1                                  15    
  34 AD7 ALA C  200  GLY C  213  1                                  14    
  35 AD8 ARG C  220  VAL C  225  5                                   6    
  36 AD9 SER C  275  LEU C  290  1                                  16    
  37 AE1 GLU D   31  GLY D   41  1                                  11    
  38 AE2 SER D   71  GLN D   85  1                                  15    
  39 AE3 GLY D   98  LEU D  102  5                                   5    
  40 AE4 SER D  106  TYR D  112  1                                   7    
  41 AE5 VAL D  119  SER D  130  1                                  12    
  42 AE6 ASP D  131  LEU D  142  1                                  12    
  43 AE7 GLY D  143  ILE D  155  1                                  13    
  44 AE8 LEU D  167  SER D  171  5                                   5    
  45 AE9 SER D  182  LEU D  195  1                                  14    
  46 AF1 ALA D  200  GLY D  213  1                                  14    
  47 AF2 ARG D  220  VAL D  225  1                                   6    
  48 AF3 SER D  275  LEU D  290  1                                  16    

>  <SHEET>
   1 AA1 5 THR A  56  TYR A  60  0                                        
   2 AA1 5 SER A  43  ASP A  50 -1  N  VAL A  46   O  TYR A  60           
   3 AA1 5 ILE A 259  ARG A 266 -1  O  ARG A 266   N  SER A  43           
   4 AA1 5 ALA A 244  TRP A 251 -1  N  VAL A 250   O  ILE A 259           
   5 AA1 5 ALA A 230  THR A 237 -1  N  GLY A 236   O  ASN A 245           
   1 AA2 2 PHE A  66  PRO A  67  0                                        
   2 AA2 2 THR A 180  SER A 181 -1  O  SER A 181   N  PHE A  66           
   1 AA3 2 PRO A  94  ILE A  95  0                                        
   2 AA3 2 MET A 117  THR A 118 -1  O  MET A 117   N  ILE A  95           
   1 AA4 5 THR B  56  TYR B  60  0                                        
   2 AA4 5 SER B  43  ASP B  50 -1  N  VAL B  46   O  TYR B  60           
   3 AA4 5 ILE B 259  ARG B 266 -1  O  TYR B 264   N  GLY B  45           
   4 AA4 5 ALA B 244  TRP B 251 -1  N  VAL B 250   O  ILE B 259           
   5 AA4 5 ALA B 230  THR B 237 -1  N  ALA B 230   O  TRP B 251           
   1 AA5 2 PHE B  66  PRO B  67  0                                        
   2 AA5 2 THR B 180  SER B 181 -1  O  SER B 181   N  PHE B  66           
   1 AA6 2 PRO B  94  ILE B  95  0                                        
   2 AA6 2 MET B 117  THR B 118 -1  O  MET B 117   N  ILE B  95           
   1 AA7 5 THR C  56  TYR C  60  0                                        
   2 AA7 5 SER C  43  ASP C  50 -1  N  VAL C  46   O  TYR C  60           
   3 AA7 5 ILE C 259  ARG C 266 -1  O  ARG C 266   N  SER C  43           
   4 AA7 5 ALA C 244  TRP C 251 -1  N  ASP C 246   O  VAL C 263           
   5 AA7 5 ALA C 230  THR C 237 -1  N  ALA C 230   O  TRP C 251           
   1 AA8 2 PHE C  66  PRO C  67  0                                        
   2 AA8 2 THR C 180  SER C 181 -1  O  SER C 181   N  PHE C  66           
   1 AA9 2 PRO C  94  ILE C  95  0                                        
   2 AA9 2 MET C 117  THR C 118 -1  O  MET C 117   N  ILE C  95           
   1 AB1 5 THR D  56  TYR D  60  0                                        
   2 AB1 5 SER D  43  ASP D  50 -1  N  VAL D  46   O  TYR D  60           
   3 AB1 5 ILE D 259  ARG D 266 -1  O  TYR D 264   N  GLY D  45           
   4 AB1 5 ALA D 244  TRP D 251 -1  N  VAL D 250   O  ILE D 259           
   5 AB1 5 ALA D 230  THR D 237 -1  N  ALA D 230   O  TRP D 251           
   1 AB2 2 PHE D  66  PRO D  67  0                                        
   2 AB2 2 THR D 180  SER D 181 -1  O  SER D 181   N  PHE D  66           
   1 AB3 2 PRO D  94  ILE D  95  0                                        
   2 AB3 2 MET D 117  THR D 118 -1  O  MET D 117   N  ILE D  95           

>  <SSBOND>
   1 CYS A   69    CYS A  238                          1555   1555  2.08  
   2 CYS B   69    CYS B  238                          1555   1555  2.10  
   3 CYS C   69    CYS C  238                          1555   1555  2.08  
   4 CYS D   69    CYS D  238                          1555   1555  2.06  

>  <LINK>
       OG  SER A  70                 B7  J00 A 301     1555   1555  1.74  
       OG  SER B  70                 B7  J00 B 301     1555   1555  1.77  
       OG  SER C  70                 B7  J00 C 301     1555   1555  1.72  
       OG  SER D  70                 B7  J00 D 301     1555   1555  1.83  

>  <CISPEP>
   1 GLU A  166    LEU A  167          0         0.03                     
   2 LEU B   28    VAL B   29          0        -6.36                     
   3 GLU B  166    LEU B  167          0        -0.82                     
   4 THR C   26    ASN C   27          0       -11.07                     
   5 GLU C  166    LEU C  167          0         0.93                     
   6 GLU D  166    LEU D  167          0         7.25                     

>  <ORIGX1>
      1.000000  0.000000  0.000000        0.00000                         

>  <ORIGX2>
      0.000000  1.000000  0.000000        0.00000                         

>  <ORIGX3>
      0.000000  0.000000  1.000000        0.00000                         

>  <SCALE1>
      0.006045  0.003490  0.000000        0.00000                         

>  <SCALE2>
      0.000000  0.006980  0.000000        0.00000                         

>  <SCALE3>
      0.000000  0.000000  0.010542        0.00000                         

>  <MASTER>
      381    0   23   48   36    0    0    6 8391    4  190   84          

$$$$
