start_structures/Ligand_Substrate/Ligand_Complex_Stripped/JW1_5TG4.pdb
 OpenBabel08222315213D

 23 23  0  0  1  0  0  0  0  0999 V2000
   -1.7780   27.0080  -14.4160 N   0  0  0  0  0  0  0  0  0  0  0  0
   -1.3590   26.4710  -13.1480 C   0  0  2  0  0  0  0  0  0  0  0  0
   -2.3740   25.5940  -12.4400 C   0  0  0  0  0  0  0  0  0  0  0  0
   -2.0250   24.9400  -11.4610 O   0  0  0  0  0  0  0  0  0  0  0  0
   -0.8990   27.5740  -12.1920 C   0  0  0  0  0  0  0  0  0  0  0  0
    0.2280   28.2590  -12.7920 O   0  0  0  0  0  0  0  0  0  0  0  0
    3.7490   31.3970  -14.7440 C   0  0  0  0  0  0  0  0  0  0  0  0
    3.5360   31.2620  -13.4180 C   0  0  0  0  0  0  0  0  0  0  0  0
    2.3780   30.7460  -12.8750 C   0  0  0  0  0  0  0  0  0  0  0  0
    1.4050   30.2320  -13.7360 C   0  0  0  0  0  0  0  0  0  0  0  0
    1.7050   30.3730  -15.1130 C   0  0  0  0  0  0  0  0  0  0  0  0
    2.8600   30.8840  -15.6540 C   0  0  0  0  0  0  0  0  0  0  0  0
    0.0310   29.6650  -13.1660 B   0  0  0  0  0  0  0  0  0  0  0  0
   -0.3490   30.4430  -11.9190 O   0  0  0  0  0  0  0  0  0  0  0  0
   -1.0630   29.7610  -14.1880 O   0  0  0  0  0  0  0  0  0  0  0  0
    2.9940   30.8780  -17.0500 N   0  0  0  0  0  0  0  0  0  0  0  0
    4.1380   30.9710  -17.6700 C   0  0  0  0  0  0  0  0  0  0  0  0
    3.9530   30.8940  -19.0470 O   0  0  0  0  0  0  0  0  0  0  0  0
    4.9990   31.1150  -19.9990 C   0  0  0  0  0  0  0  0  0  0  0  0
    5.5980   32.5160  -19.8120 C   0  0  0  0  0  0  0  0  0  0  0  0
    4.2130   30.9770  -21.2930 C   0  0  0  0  0  0  0  0  0  0  0  0
    6.1080   30.0590  -19.8410 C   0  0  0  0  0  0  0  0  0  0  0  0
    5.2270   31.1930  -17.1690 O   0  0  0  0  0  0  0  0  0  0  0  0
  2  1  1  6  0  0  0
  2  3  1  0  0  0  0
  2  5  1  0  0  0  0
  3  4  2  0  0  0  0
  6 13  1  0  0  0  0
  6  5  1  0  0  0  0
  7  8  2  0  0  0  0
  7 12  1  0  0  0  0
  8  9  1  0  0  0  0
  9 10  2  0  0  0  0
 10 11  1  0  0  0  0
 10 13  1  0  0  0  0
 11 12  2  0  0  0  0
 12 16  1  0  0  0  0
 13 14  1  0  0  0  0
 13 15  1  0  0  0  0
 16 17  1  0  0  0  0
 17 18  1  0  0  0  0
 17 23  2  0  0  0  0
 18 19  1  0  0  0  0
 19 20  1  0  0  0  0
 19 21  1  0  0  0  0
 19 22  1  0  0  0  0
M  END
>  <HEADER>
    HYDROLASE/HYDROLASE INHIBITOR           27-SEP-16   5TG4              

>  <TITLE>
    OXA-24/40 IN COMPLEX WITH BORONIC ACID BA16                           

>  <COMPND>
    MOL_ID: 1;                                                            
   2 MOLECULE: BETA-LACTAMASE;                                            
   3 CHAIN: A;                                                            
   4 SYNONYM: BETA-LACTAMASE OXA-33,BETALACTAMASE OXA24,CARBAPENEM-       
   5 HYDROLYZING BETA-LACTAMASE OXA-40,CARBAPENEM-HYDROLYZING             
   6 OXACILLINASE,CARBAPENEM-HYDROLYZING OXACILLINASE OXA-40,CARBAPENEMASE
   7 OXA-24,CLASS D BETA-LACTAMASE OXA-40,OXA24 B-LACTAMASE,OXA40;        
   8 EC: 3.5.2.6;                                                         
   9 ENGINEERED: YES                                                      

>  <SOURCE>
    MOL_ID: 1;                                                            
   2 ORGANISM_SCIENTIFIC: ACINETOBACTER BAUMANNII;                        
   3 ORGANISM_TAXID: 470;                                                 
   4 GENE: BLAOXA-33, BLA-OXA-40, BLAOXA-24, BLAOXA-40, OXA-24, OXA40;    
   5 EXPRESSION_SYSTEM: ESCHERICHIA COLI BL21(DE3);                       
   6 EXPRESSION_SYSTEM_TAXID: 469008;                                     
   7 EXPRESSION_SYSTEM_PLASMID: PET24A                                    

>  <KEYWDS>
    INHIBITOR, COMPLEX, LACTAMASE, OXA, HYDROLASE-HYDROLASE INHIBITOR     
   2 COMPLEX                                                              

>  <EXPDTA>
    X-RAY DIFFRACTION                                                     

>  <AUTHOR>
    R.A.POWERS,J.P.WERNER,J.M.MITCHELL                                    

>  <REVDAT>
   5   08-JUL-20 5TG4    1       COMPND HETNAM HETSYN ATOM                
   4   11-DEC-19 5TG4    1       REMARK                                   
   3   20-SEP-17 5TG4    1       REMARK                                   
   2   08-MAR-17 5TG4    1       JRNL                                     
   1   11-JAN-17 5TG4    0                                                

>  <JRNL>
      AUTH   J.P.WERNER,J.M.MITCHELL,M.A.TARACILA,R.A.BONOMO,R.A.POWERS   
      TITL   EXPLORING THE POTENTIAL OF BORONIC ACIDS AS INHIBITORS OF    
      TITL 2 OXA-24/40 BETA-LACTAMASE.                                    
      REF    PROTEIN SCI.                  V.  26   515 2017              
      REFN                   ESSN 1469-896X                               
      PMID   27997706                                                     
      DOI    10.1002/PRO.3100                                             

>  <REMARK>
   2                                                                      
   2 RESOLUTION.    1.44 ANGSTROMS.                                       
   3                                                                      
   3 REFINEMENT.                                                          
   3   PROGRAM     : REFMAC 5.8.0155                                      
   3   AUTHORS     : MURSHUDOV,SKUBAK,LEBEDEV,PANNU,STEINER,              
   3               : NICHOLLS,WINN,LONG,VAGIN                             
   3                                                                      
   3    REFINEMENT TARGET : NULL                                          
   3                                                                      
   3  DATA USED IN REFINEMENT.                                            
   3   RESOLUTION RANGE HIGH (ANGSTROMS) : 1.44                           
   3   RESOLUTION RANGE LOW  (ANGSTROMS) : 72.37                          
   3   DATA CUTOFF            (SIGMA(F)) : NULL                           
   3   COMPLETENESS FOR RANGE        (%) : 99.9                           
   3   NUMBER OF REFLECTIONS             : 77950                          
   3                                                                      
   3  FIT TO DATA USED IN REFINEMENT.                                     
   3   CROSS-VALIDATION METHOD          : THROUGHOUT                      
   3   FREE R VALUE TEST SET SELECTION  : RANDOM                          
   3   R VALUE     (WORKING + TEST SET) : 0.113                           
   3   R VALUE            (WORKING SET) : 0.112                           
   3   FREE R VALUE                     : 0.132                           
   3   FREE R VALUE TEST SET SIZE   (%) : 4.900                           
   3   FREE R VALUE TEST SET COUNT      : 4037                            
   3                                                                      
   3  FIT IN THE HIGHEST RESOLUTION BIN.                                  
   3   TOTAL NUMBER OF BINS USED           : 20                           
   3   BIN RESOLUTION RANGE HIGH       (A) : 1.44                         
   3   BIN RESOLUTION RANGE LOW        (A) : 1.48                         
   3   REFLECTION IN BIN     (WORKING SET) : 5699                         
   3   BIN COMPLETENESS (WORKING+TEST) (%) : 99.90                        
   3   BIN R VALUE           (WORKING SET) : 0.2320                       
   3   BIN FREE R VALUE SET COUNT          : 295                          
   3   BIN FREE R VALUE                    : 0.2410                       
   3                                                                      
   3  NUMBER OF NON-HYDROGEN ATOMS USED IN REFINEMENT.                    
   3   PROTEIN ATOMS            : 1924                                    
   3   NUCLEIC ACID ATOMS       : 0                                       
   3   HETEROGEN ATOMS          : 56                                      
   3   SOLVENT ATOMS            : 342                                     
   3                                                                      
   3  B VALUES.                                                           
   3   FROM WILSON PLOT           (A**2) : NULL                           
   3   MEAN B VALUE      (OVERALL, A**2) : 20.71                          
   3   OVERALL ANISOTROPIC B VALUE.                                       
   3    B11 (A**2) : -0.47000                                             
   3    B22 (A**2) : -0.47000                                             
   3    B33 (A**2) : 0.95000                                              
   3    B12 (A**2) : 0.00000                                              
   3    B13 (A**2) : 0.00000                                              
   3    B23 (A**2) : 0.00000                                              
   3                                                                      
   3  ESTIMATED OVERALL COORDINATE ERROR.                                 
   3   ESU BASED ON R VALUE                            (A): 0.035         
   3   ESU BASED ON FREE R VALUE                       (A): 0.035         
   3   ESU BASED ON MAXIMUM LIKELIHOOD                 (A): 0.023         
   3   ESU FOR B VALUES BASED ON MAXIMUM LIKELIHOOD (A**2): 1.374         
   3                                                                      
   3 CORRELATION COEFFICIENTS.                                            
   3   CORRELATION COEFFICIENT FO-FC      : 0.983                         
   3   CORRELATION COEFFICIENT FO-FC FREE : 0.979                         
   3                                                                      
   3  RMS DEVIATIONS FROM IDEAL VALUES        COUNT    RMS    WEIGHT      
   3   BOND LENGTHS REFINED ATOMS        (A):  2222 ; 0.025 ; 0.019       
   3   BOND LENGTHS OTHERS               (A):  2105 ; 0.002 ; 0.020       
   3   BOND ANGLES REFINED ATOMS   (DEGREES):  3029 ; 2.280 ; 1.975       
   3   BOND ANGLES OTHERS          (DEGREES):  4855 ; 1.031 ; 3.000       
   3   TORSION ANGLES, PERIOD 1    (DEGREES):   289 ; 9.047 ; 5.052       
   3   TORSION ANGLES, PERIOD 2    (DEGREES):    95 ;40.630 ;25.684       
   3   TORSION ANGLES, PERIOD 3    (DEGREES):   388 ;13.236 ;15.000       
   3   TORSION ANGLES, PERIOD 4    (DEGREES):     8 ;20.507 ;15.000       
   3   CHIRAL-CENTER RESTRAINTS       (A**3):   327 ; 0.214 ; 0.200       
   3   GENERAL PLANES REFINED ATOMS      (A):  2635 ; 0.013 ; 0.020       
   3   GENERAL PLANES OTHERS             (A):   511 ; 0.004 ; 0.020       
   3   NON-BONDED CONTACTS REFINED ATOMS (A):  NULL ;  NULL ;  NULL       
   3   NON-BONDED CONTACTS OTHERS        (A):  NULL ;  NULL ;  NULL       
   3   NON-BONDED TORSION REFINED ATOMS  (A):  NULL ;  NULL ;  NULL       
   3   NON-BONDED TORSION OTHERS         (A):  NULL ;  NULL ;  NULL       
   3   H-BOND (X...Y) REFINED ATOMS      (A):  NULL ;  NULL ;  NULL       
   3   H-BOND (X...Y) OTHERS             (A):  NULL ;  NULL ;  NULL       
   3   POTENTIAL METAL-ION REFINED ATOMS (A):  NULL ;  NULL ;  NULL       
   3   POTENTIAL METAL-ION OTHERS        (A):  NULL ;  NULL ;  NULL       
   3   SYMMETRY VDW REFINED ATOMS        (A):  NULL ;  NULL ;  NULL       
   3   SYMMETRY VDW OTHERS               (A):  NULL ;  NULL ;  NULL       
   3   SYMMETRY H-BOND REFINED ATOMS     (A):  NULL ;  NULL ;  NULL       
   3   SYMMETRY H-BOND OTHERS            (A):  NULL ;  NULL ;  NULL       
   3   SYMMETRY METAL-ION REFINED ATOMS  (A):  NULL ;  NULL ;  NULL       
   3   SYMMETRY METAL-ION OTHERS         (A):  NULL ;  NULL ;  NULL       
   3                                                                      
   3  ISOTROPIC THERMAL FACTOR RESTRAINTS.     COUNT   RMS    WEIGHT      
   3   MAIN-CHAIN BOND REFINED ATOMS  (A**2):  1092 ; 3.301 ; 1.681       
   3   MAIN-CHAIN BOND OTHER ATOMS    (A**2):  1091 ; 3.300 ; 1.679       
   3   MAIN-CHAIN ANGLE REFINED ATOMS (A**2):  1400 ; 3.496 ; 2.525       
   3   MAIN-CHAIN ANGLE OTHER ATOMS   (A**2):  1401 ; 3.495 ; 2.526       
   3   SIDE-CHAIN BOND REFINED ATOMS  (A**2):  1130 ; 3.761 ; 2.064       
   3   SIDE-CHAIN BOND OTHER ATOMS    (A**2):  1131 ; 3.762 ; 2.065       
   3   SIDE-CHAIN ANGLE REFINED ATOMS (A**2):  NULL ;  NULL ;  NULL       
   3   SIDE-CHAIN ANGLE OTHER ATOMS   (A**2):  1630 ; 4.301 ; 2.952       
   3   LONG RANGE B REFINED ATOMS     (A**2):  2615 ; 4.647 ;22.254       
   3   LONG RANGE B OTHER ATOMS       (A**2):  2616 ; 4.646 ;22.257       
   3                                                                      
   3 ANISOTROPIC THERMAL FACTOR RESTRAINTS.    COUNT   RMS   WEIGHT       
   3   RIGID-BOND RESTRAINTS          (A**2):  4326 ; 6.611 ; 3.000       
   3   SPHERICITY; FREE ATOMS         (A**2):   229 ;30.955 ; 5.000       
   3   SPHERICITY; BONDED ATOMS       (A**2):  4399 ;12.688 ; 5.000       
   3                                                                      
   3  NCS RESTRAINTS STATISTICS                                           
   3   NUMBER OF DIFFERENT NCS GROUPS : NULL                              
   3                                                                      
   3  TLS DETAILS                                                         
   3   NUMBER OF TLS GROUPS  : NULL                                       
   3                                                                      
   3  BULK SOLVENT MODELLING.                                             
   3   METHOD USED : NULL                                                 
   3   PARAMETERS FOR MASK CALCULATION                                    
   3   VDW PROBE RADIUS   : 1.20                                          
   3   ION PROBE RADIUS   : 0.80                                          
   3   SHRINKAGE RADIUS   : 0.80                                          
   3                                                                      
   3  OTHER REFINEMENT REMARKS: HYDROGENS HAVE BEEN ADDED IN THE RIDING   
   3  POSITIONS                                                           
   4                                                                      
   4 5TG4 COMPLIES WITH FORMAT V. 3.30, 13-JUL-11                         
 100                                                                      
 100 THIS ENTRY HAS BEEN PROCESSED BY RCSB ON 28-SEP-16.                  
 100 THE DEPOSITION ID IS D_1000223888.                                   
 200                                                                      
 200 EXPERIMENTAL DETAILS                                                 
 200  EXPERIMENT TYPE                : X-RAY DIFFRACTION                  
 200  DATE OF DATA COLLECTION        : 17-JUL-15                          
 200  TEMPERATURE           (KELVIN) : 100                                
 200  PH                             : 8.5                                
 200  NUMBER OF CRYSTALS USED        : 1                                  
 200                                                                      
 200  SYNCHROTRON              (Y/N) : Y                                  
 200  RADIATION SOURCE               : APS                                
 200  BEAMLINE                       : 21-ID-F                            
 200  X-RAY GENERATOR MODEL          : NULL                               
 200  MONOCHROMATIC OR LAUE    (M/L) : M                                  
 200  WAVELENGTH OR RANGE        (A) : 0.97872                            
 200  MONOCHROMATOR                  : NULL                               
 200  OPTICS                         : NULL                               
 200                                                                      
 200  DETECTOR TYPE                  : CCD                                
 200  DETECTOR MANUFACTURER          : RAYONIX MX-225                     
 200  INTENSITY-INTEGRATION SOFTWARE : XDS                                
 200  DATA SCALING SOFTWARE          : XSCALE                             
 200                                                                      
 200  NUMBER OF UNIQUE REFLECTIONS   : 82068                              
 200  RESOLUTION RANGE HIGH      (A) : 1.440                              
 200  RESOLUTION RANGE LOW       (A) : 102.350                            
 200  REJECTION CRITERIA  (SIGMA(I)) : NULL                               
 200                                                                      
 200 OVERALL.                                                             
 200  COMPLETENESS FOR RANGE     (%) : 100.0                              
 200  DATA REDUNDANCY                : 8.000                              
 200  R MERGE                    (I) : 0.06200                            
 200  R SYM                      (I) : NULL                               
 200  <I/SIGMA(I)> FOR THE DATA SET  : 19.7000                            
 200                                                                      
 200 IN THE HIGHEST RESOLUTION SHELL.                                     
 200  HIGHEST RESOLUTION SHELL, RANGE HIGH (A) : NULL                     
 200  HIGHEST RESOLUTION SHELL, RANGE LOW  (A) : NULL                     
 200  COMPLETENESS FOR SHELL     (%) : NULL                               
 200  DATA REDUNDANCY IN SHELL       : NULL                               
 200  R MERGE FOR SHELL          (I) : NULL                               
 200  R SYM FOR SHELL            (I) : NULL                               
 200  <I/SIGMA(I)> FOR SHELL         : NULL                               
 200                                                                      
 200 DIFFRACTION PROTOCOL: SINGLE WAVELENGTH                              
 200 METHOD USED TO DETERMINE THE STRUCTURE: MOLECULAR REPLACEMENT        
 200 SOFTWARE USED: PHASER                                                
 200 STARTING MODEL: 3PAE                                                 
 200                                                                      
 200 REMARK: NULL                                                         
 280                                                                      
 280 CRYSTAL                                                              
 280 SOLVENT CONTENT, VS   (%): 69.62                                     
 280 MATTHEWS COEFFICIENT, VM (ANGSTROMS**3/DA): 4.05                     
 280                                                                      
 280 CRYSTALLIZATION CONDITIONS: 100 MM TRIS-HCL, PH 8.5, 2.0 M           
 280  AMMONIUM SULFATE, VAPOR DIFFUSION, HANGING DROP, TEMPERATURE        
 280  298.0K                                                              
 290                                                                      
 290 CRYSTALLOGRAPHIC SYMMETRY                                            
 290 SYMMETRY OPERATORS FOR SPACE GROUP: P 41 21 2                        
 290                                                                      
 290      SYMOP   SYMMETRY                                                
 290     NNNMMM   OPERATOR                                                
 290       1555   X,Y,Z                                                   
 290       2555   -X,-Y,Z+1/2                                             
 290       3555   -Y+1/2,X+1/2,Z+1/4                                      
 290       4555   Y+1/2,-X+1/2,Z+3/4                                      
 290       5555   -X+1/2,Y+1/2,-Z+1/4                                     
 290       6555   X+1/2,-Y+1/2,-Z+3/4                                     
 290       7555   Y,X,-Z                                                  
 290       8555   -Y,-X,-Z+1/2                                            
 290                                                                      
 290     WHERE NNN -> OPERATOR NUMBER                                     
 290           MMM -> TRANSLATION VECTOR                                  
 290                                                                      
 290 CRYSTALLOGRAPHIC SYMMETRY TRANSFORMATIONS                            
 290 THE FOLLOWING TRANSFORMATIONS OPERATE ON THE ATOM/HETATM             
 290 RECORDS IN THIS ENTRY TO PRODUCE CRYSTALLOGRAPHICALLY                
 290 RELATED MOLECULES.                                                   
 290   SMTRY1   1  1.000000  0.000000  0.000000        0.00000            
 290   SMTRY2   1  0.000000  1.000000  0.000000        0.00000            
 290   SMTRY3   1  0.000000  0.000000  1.000000        0.00000            
 290   SMTRY1   2 -1.000000  0.000000  0.000000        0.00000            
 290   SMTRY2   2  0.000000 -1.000000  0.000000        0.00000            
 290   SMTRY3   2  0.000000  0.000000  1.000000       42.71900            
 290   SMTRY1   3  0.000000 -1.000000  0.000000       51.17350            
 290   SMTRY2   3  1.000000  0.000000  0.000000       51.17350            
 290   SMTRY3   3  0.000000  0.000000  1.000000       21.35950            
 290   SMTRY1   4  0.000000  1.000000  0.000000       51.17350            
 290   SMTRY2   4 -1.000000  0.000000  0.000000       51.17350            
 290   SMTRY3   4  0.000000  0.000000  1.000000       64.07850            
 290   SMTRY1   5 -1.000000  0.000000  0.000000       51.17350            
 290   SMTRY2   5  0.000000  1.000000  0.000000       51.17350            
 290   SMTRY3   5  0.000000  0.000000 -1.000000       21.35950            
 290   SMTRY1   6  1.000000  0.000000  0.000000       51.17350            
 290   SMTRY2   6  0.000000 -1.000000  0.000000       51.17350            
 290   SMTRY3   6  0.000000  0.000000 -1.000000       64.07850            
 290   SMTRY1   7  0.000000  1.000000  0.000000        0.00000            
 290   SMTRY2   7  1.000000  0.000000  0.000000        0.00000            
 290   SMTRY3   7  0.000000  0.000000 -1.000000        0.00000            
 290   SMTRY1   8  0.000000 -1.000000  0.000000        0.00000            
 290   SMTRY2   8 -1.000000  0.000000  0.000000        0.00000            
 290   SMTRY3   8  0.000000  0.000000 -1.000000       42.71900            
 290                                                                      
 290 REMARK: NULL                                                         
 300                                                                      
 300 BIOMOLECULE: 1                                                       
 300 SEE REMARK 350 FOR THE AUTHOR PROVIDED AND/OR PROGRAM                
 300 GENERATED ASSEMBLY INFORMATION FOR THE STRUCTURE IN                  
 300 THIS ENTRY. THE REMARK MAY ALSO PROVIDE INFORMATION ON               
 300 BURIED SURFACE AREA.                                                 
 350                                                                      
 350 COORDINATES FOR A COMPLETE MULTIMER REPRESENTING THE KNOWN           
 350 BIOLOGICALLY SIGNIFICANT OLIGOMERIZATION STATE OF THE                
 350 MOLECULE CAN BE GENERATED BY APPLYING BIOMT TRANSFORMATIONS          
 350 GIVEN BELOW.  BOTH NON-CRYSTALLOGRAPHIC AND                          
 350 CRYSTALLOGRAPHIC OPERATIONS ARE GIVEN.                               
 350                                                                      
 350 BIOMOLECULE: 1                                                       
 350 AUTHOR DETERMINED BIOLOGICAL UNIT: MONOMERIC                         
 350 SOFTWARE DETERMINED QUATERNARY STRUCTURE: MONOMERIC                  
 350 SOFTWARE USED: PISA                                                  
 350 APPLY THE FOLLOWING TO CHAINS: A                                     
 350   BIOMT1   1  1.000000  0.000000  0.000000        0.00000            
 350   BIOMT2   1  0.000000  1.000000  0.000000        0.00000            
 350   BIOMT3   1  0.000000  0.000000  1.000000        0.00000            
 375                                                                      
 375 SPECIAL POSITION                                                     
 375 THE FOLLOWING ATOMS ARE FOUND TO BE WITHIN 0.15 ANGSTROMS            
 375 OF A SYMMETRY RELATED ATOM AND ARE ASSUMED TO BE ON SPECIAL          
 375 POSITIONS.                                                           
 375                                                                      
 375 ATOM RES CSSEQI                                                      
 375 C    BCT A 305  LIES ON A SPECIAL POSITION.                          
 375 O3   BCT A 305  LIES ON A SPECIAL POSITION.                          
 470                                                                      
 470 MISSING ATOM                                                         
 470 THE FOLLOWING RESIDUES HAVE MISSING ATOMS (M=MODEL NUMBER;           
 470 RES=RESIDUE NAME; C=CHAIN IDENTIFIER; SSEQ=SEQUENCE NUMBER;          
 470 I=INSERTION CODE):                                                   
 470   M RES CSSEQI  ATOMS                                                
 470     LYS A 109    CG   CD   CE   NZ                                   
 470     LYS A 203    CG   CD   CE   NZ                                   
 470     VAL A 225    CG1  CG2                                            
 470     LYS A 242    CG   CD   CE   NZ                                   
 470     GLU A 254    CG   CD   OE1  OE2                                  
 500                                                                      
 500 GEOMETRY AND STEREOCHEMISTRY                                         
 500 SUBTOPIC: CLOSE CONTACTS IN SAME ASYMMETRIC UNIT                     
 500                                                                      
 500 THE FOLLOWING ATOMS ARE IN CLOSE CONTACT.                            
 500                                                                      
 500  ATM1  RES C  SSEQI   ATM2  RES C  SSEQI           DISTANCE          
 500   OE1  GLN A    37     O    HOH A   403              1.86            
 500   NE2  GLN A    50     O    HOH A   404              2.00            
 500   O    HOH A   429     O    HOH A   655              2.05            
 500   O    HOH A   592     O    HOH A   678              2.06            
 500   CG   ABA A   114     S    MEE A   310              2.09            
 500   O    HOH A   651     O    HOH A   741              2.19            
 500                                                                      
 500 REMARK: NULL                                                         
 500                                                                      
 500 GEOMETRY AND STEREOCHEMISTRY                                         
 500 SUBTOPIC: CLOSE CONTACTS                                             
 500                                                                      
 500 THE FOLLOWING ATOMS THAT ARE RELATED BY CRYSTALLOGRAPHIC             
 500 SYMMETRY ARE IN CLOSE CONTACT.  AN ATOM LOCATED WITHIN 0.15          
 500 ANGSTROMS OF A SYMMETRY RELATED ATOM IS ASSUMED TO BE ON A           
 500 SPECIAL POSITION AND IS, THEREFORE, LISTED IN REMARK 375             
 500 INSTEAD OF REMARK 500.  ATOMS WITH NON-BLANK ALTERNATE               
 500 LOCATION INDICATORS ARE NOT INCLUDED IN THE CALCULATIONS.            
 500                                                                      
 500 DISTANCE CUTOFF:                                                     
 500 2.2 ANGSTROMS FOR CONTACTS NOT INVOLVING HYDROGEN ATOMS              
 500 1.6 ANGSTROMS FOR CONTACTS INVOLVING HYDROGEN ATOMS                  
 500                                                                      
 500  ATM1  RES C  SSEQI   ATM2  RES C  SSEQI  SSYMOP   DISTANCE          
 500   O    HOH A   688     O    HOH A   710     3555     1.43            
 500                                                                      
 500 REMARK: NULL                                                         
 500                                                                      
 500 GEOMETRY AND STEREOCHEMISTRY                                         
 500 SUBTOPIC: COVALENT BOND LENGTHS                                      
 500                                                                      
 500 THE STEREOCHEMICAL PARAMETERS OF THE FOLLOWING RESIDUES              
 500 HAVE VALUES WHICH DEVIATE FROM EXPECTED VALUES BY MORE               
 500 THAN 6*RMSD (M=MODEL NUMBER; RES=RESIDUE NAME; C=CHAIN               
 500 IDENTIFIER; SSEQ=SEQUENCE NUMBER; I=INSERTION CODE).                 
 500                                                                      
 500 STANDARD TABLE:                                                      
 500 FORMAT: (10X,I3,1X,2(A3,1X,A1,I4,A1,1X,A4,3X),1X,F6.3)               
 500                                                                      
 500 EXPECTED VALUES PROTEIN: ENGH AND HUBER, 1999                        
 500 EXPECTED VALUES NUCLEIC ACID: CLOWNEY ET AL 1996                     
 500                                                                      
 500  M RES CSSEQI ATM1   RES CSSEQI ATM2   DEVIATION                     
 500    GLU A  48   CD    GLU A  48   OE2     0.089                       
 500    GLU A 116   CD    GLU A 116   OE1    -0.066                       
 500    LYS A 117   CE    LYS A 117   NZ      0.156                       
 500                                                                      
 500 REMARK: NULL                                                         
 500                                                                      
 500 GEOMETRY AND STEREOCHEMISTRY                                         
 500 SUBTOPIC: COVALENT BOND ANGLES                                       
 500                                                                      
 500 THE STEREOCHEMICAL PARAMETERS OF THE FOLLOWING RESIDUES              
 500 HAVE VALUES WHICH DEVIATE FROM EXPECTED VALUES BY MORE               
 500 THAN 6*RMSD (M=MODEL NUMBER; RES=RESIDUE NAME; C=CHAIN               
 500 IDENTIFIER; SSEQ=SEQUENCE NUMBER; I=INSERTION CODE).                 
 500                                                                      
 500 STANDARD TABLE:                                                      
 500 FORMAT: (10X,I3,1X,A3,1X,A1,I4,A1,3(1X,A4,2X),12X,F5.1)              
 500                                                                      
 500 EXPECTED VALUES PROTEIN: ENGH AND HUBER, 1999                        
 500 EXPECTED VALUES NUCLEIC ACID: CLOWNEY ET AL 1996                     
 500                                                                      
 500  M RES CSSEQI ATM1   ATM2   ATM3                                     
 500    LYS A 108   CD  -  CE  -  NZ  ANGL. DEV. =  21.9 DEGREES          
 500    ARG A 110   NE  -  CZ  -  NH2 ANGL. DEV. =  -4.1 DEGREES          
 500    LYS A 267   CD  -  CE  -  NZ  ANGL. DEV. = -15.6 DEGREES          
 500                                                                      
 500 REMARK: NULL                                                         
 500                                                                      
 500 GEOMETRY AND STEREOCHEMISTRY                                         
 500 SUBTOPIC: TORSION ANGLES                                             
 500                                                                      
 500 TORSION ANGLES OUTSIDE THE EXPECTED RAMACHANDRAN REGIONS:            
 500 (M=MODEL NUMBER; RES=RESIDUE NAME; C=CHAIN IDENTIFIER;               
 500 SSEQ=SEQUENCE NUMBER; I=INSERTION CODE).                             
 500                                                                      
 500 STANDARD TABLE:                                                      
 500 FORMAT:(10X,I3,1X,A3,1X,A1,I4,A1,4X,F7.2,3X,F7.2)                    
 500                                                                      
 500 EXPECTED VALUES: GJ KLEYWEGT AND TA JONES (1996). PHI/PSI-           
 500 CHOLOGY: RAMACHANDRAN REVISITED. STRUCTURE 4, 1395 - 1400            
 500                                                                      
 500  M RES CSSEQI        PSI       PHI                                   
 500    ALA A  69       72.47   -151.33                                   
 500    ALA A  80     -142.86     49.86                                   
 500    ASN A 165       13.68   -151.26                                   
 500    ASN A 211       60.41     30.52                                   
 500                                                                      
 500 REMARK: NULL                                                         
 500                                                                      
 500 GEOMETRY AND STEREOCHEMISTRY                                         
 500 SUBTOPIC: NON-CIS, NON-TRANS                                         
 500                                                                      
 500 THE FOLLOWING PEPTIDE BONDS DEVIATE SIGNIFICANTLY FROM BOTH          
 500 CIS AND TRANS CONFORMATION.  CIS BONDS, IF ANY, ARE LISTED           
 500 ON CISPEP RECORDS.  TRANS IS DEFINED AS 180 +/- 30 AND               
 500 CIS IS DEFINED AS 0 +/- 30 DEGREES.                                  
 500                                 MODEL     OMEGA                      
 500 GLY A  224     VAL A  225                  142.43                    
 500 THR A  226     PRO A  227                   36.32                    
 500                                                                      
 500 REMARK: NULL                                                         
 800                                                                      
 800 SITE                                                                 
 800 SITE_IDENTIFIER: AC1                                                 
 800 EVIDENCE_CODE: SOFTWARE                                              
 800 SITE_DESCRIPTION: binding site for residue JW1 A 301                 
 800                                                                      
 800 SITE_IDENTIFIER: AC2                                                 
 800 EVIDENCE_CODE: SOFTWARE                                              
 800 SITE_DESCRIPTION: binding site for residue SO4 A 302                 
 800                                                                      
 800 SITE_IDENTIFIER: AC3                                                 
 800 EVIDENCE_CODE: SOFTWARE                                              
 800 SITE_DESCRIPTION: binding site for residue 3GR A 303                 
 800                                                                      
 800 SITE_IDENTIFIER: AC4                                                 
 800 EVIDENCE_CODE: SOFTWARE                                              
 800 SITE_DESCRIPTION: binding site for residue 3GR A 304                 
 800                                                                      
 800 SITE_IDENTIFIER: AC5                                                 
 800 EVIDENCE_CODE: SOFTWARE                                              
 800 SITE_DESCRIPTION: binding site for residue BCT A 305                 
 800                                                                      
 800 SITE_IDENTIFIER: AC6                                                 
 800 EVIDENCE_CODE: SOFTWARE                                              
 800 SITE_DESCRIPTION: binding site for residue BCT A 306                 
 800                                                                      
 800 SITE_IDENTIFIER: AC7                                                 
 800 EVIDENCE_CODE: SOFTWARE                                              
 800 SITE_DESCRIPTION: binding site for residue BCT A 307                 
 800                                                                      
 800 SITE_IDENTIFIER: AC8                                                 
 800 EVIDENCE_CODE: SOFTWARE                                              
 800 SITE_DESCRIPTION: binding site for residue BCT A 308                 
 800                                                                      
 800 SITE_IDENTIFIER: AC9                                                 
 800 EVIDENCE_CODE: SOFTWARE                                              
 800 SITE_DESCRIPTION: binding site for residue BCT A 309                 
 800                                                                      
 800 SITE_IDENTIFIER: AD1                                                 
 800 EVIDENCE_CODE: SOFTWARE                                              
 800 SITE_DESCRIPTION: binding site for residue MEE A 310                 
 900                                                                      
 900 RELATED ENTRIES                                                      
 900 RELATED ID: 5TG5   RELATED DB: PDB                                   
 900 RELATED ID: 5TG6   RELATED DB: PDB                                   
 900 RELATED ID: 5TG7   RELATED DB: PDB                                   

>  <DBREF>
 5TG4 A   32   275  UNP    Q8RLA6   Q8RLA6_ACIBA    32    275             

>  <SEQADV>
 5TG4 MET A   31  UNP  Q8RLA6              INITIATING METHIONINE          

>  <SEQRES>
   1 A  245  MET HIS ILE SER SER GLN GLN HIS GLU LYS ALA ILE LYS          
   2 A  245  SER TYR PHE ASP GLU ALA GLN THR GLN GLY VAL ILE ILE          
   3 A  245  ILE LYS GLU GLY LYS ASN LEU SER THR TYR GLY ASN ALA          
   4 A  245  LEU ALA ARG ALA ASN LYS GLU TYR VAL PRO ALA SER THR          
   5 A  245  PHE KCX MET LEU ASN ALA LEU ILE GLY LEU GLU ASN HIS          
   6 A  245  LYS ALA THR THR ASN GLU ILE PHE LYS TRP ASP GLY LYS          
   7 A  245  LYS ARG THR TYR PRO ABA TRP GLU LYS ASP MET THR LEU          
   8 A  245  GLY GLU ALA MET ALA LEU SER ALA VAL PRO VAL TYR GLN          
   9 A  245  GLU LEU ALA ARG ARG THR GLY LEU GLU LEU MET GLN LYS          
  10 A  245  GLU VAL LYS ARG VAL ASN PHE GLY ASN THR ASN ILE GLY          
  11 A  245  THR GLN VAL ASP ASN PHE TRP LEU VAL GLY PRO LEU LYS          
  12 A  245  ILE THR PRO VAL GLN GLU VAL ASN PHE ALA ASP ASP LEU          
  13 A  245  ALA HIS ASN ARG LEU PRO PHE LYS LEU ABA THR GLN GLU          
  14 A  245  GLU VAL LYS LYS MET LEU LEU ILE LYS GLU VAL ASN GLY          
  15 A  245  SER LYS ILE TYR ALA LYS SER GLY TRP GLY MET GLY VAL          
  16 A  245  THR PRO GLN VAL GLY TRP LEU THR GLY TRP VAL GLU GLN          
  17 A  245  ALA ASN GLY LYS LYS ILE PRO PHE SER LEU ASN LEU GLU          
  18 A  245  MET LYS GLU GLY MET SER GLY SER ILE ARG ASN GLU ILE          
  19 A  245  THR TYR LYS SER LEU GLU ASN LEU GLY ILE ILE                  

>  <MODRES>
 5TG4 KCX A   84  LYS  MODIFIED RESIDUE                                   
 5TG4 ABA A  114  MET  MODIFIED RESIDUE                                   
 5TG4 ABA A  196  GLU  MODIFIED RESIDUE                                   

>  <HET>
 KCX  A  84      12                                                       
 ABA  A 114       6                                                       
 ABA  A 196       6                                                       
 JW1  A 301      17                                                       
 SO4  A 302       5                                                       
 3GR  A 303      12                                                       
 3GR  A 304       6                                                       
 BCT  A 305       4                                                       
 BCT  A 306       4                                                       
 BCT  A 307       4                                                       
 BCT  A 308       4                                                       
 BCT  A 309       4                                                       
 MEE  A 310       4                                                       

>  <HETNAM>
     KCX LYSINE NZ-CARBOXYLIC ACID                                        
     ABA ALPHA-AMINOBUTYRIC ACID                                          
     JW1 {3-[(TERT-BUTOXYCARBONYL)AMINO]PHENYL}BORONIC ACID               
     SO4 SULFATE ION                                                      
     3GR D-GLYCERALDEHYDE                                                 
     BCT BICARBONATE ION                                                  
     MEE METHANETHIOL                                                     

>  <HETSYN>
     3GR GLYCERALDEHYDE; (2R)-2,3-DIHYDROXYPROPANAL                       

>  <FORMUL>
   1  KCX    C7 H14 N2 O4                                                 
   1  ABA    2(C4 H9 N O2)                                                
   2  JW1    C11 H16 B N O4                                               
   3  SO4    O4 S 2-                                                      
   4  3GR    2(C3 H6 O3)                                                  
   6  BCT    5(C H O3 1-)                                                 
  11  MEE    C H4 S                                                       
  12  HOH   *342(H2 O)                                                    

>  <HELIX>
   1 AA1 SER A   34  ALA A   49  1                                  16    
   2 AA2 ALA A   69  LYS A   75  5                                   7    
   3 AA3 PRO A   79  THR A   82  5                                   4    
   4 AA4 PHE A   83  ASN A   94  1                                  12    
   5 AA5 TYR A  112  GLU A  116  5                                   5    
   6 AA6 THR A  120  SER A  128  1                                   9    
   7 AA7 ALA A  129  GLY A  141  1                                  13    
   8 AA8 GLY A  141  ASN A  153  1                                  13    
   9 AA9 THR A  175  HIS A  188  1                                  14    
  10 AB1 LYS A  194  MET A  204  1                                  11    
  11 AB2 GLY A  258  LEU A  272  1                                  15    

>  <SHEET>
   1 AA1 6 ASN A  62  GLY A  67  0                                        
   2 AA1 6 GLY A  53  GLU A  59 -1  N  ILE A  57   O  SER A  64           
   3 AA1 6 LYS A 243  MET A 252 -1  O  ASN A 249   N  VAL A  54           
   4 AA1 6 GLN A 228  GLU A 237 -1  N  GLY A 230   O  LEU A 250           
   5 AA1 6 SER A 213  TRP A 221 -1  N  LYS A 214   O  GLU A 237           
   6 AA1 6 LEU A 206  VAL A 210 -1  N  LYS A 208   O  ILE A 215           

>  <LINK>
       OG  SER A  81                 B7  JW1 A 301     1555   1555  1.47  
       C   PHE A  83                 N   KCX A  84     1555   1555  1.34  
       C   KCX A  84                 N   MET A  85     1555   1555  1.32  
       C   PRO A 113                 N   ABA A 114     1555   1555  1.38  
       C   ABA A 114                 N   TRP A 115     1555   1555  1.36  
       C   LEU A 195                 N   ABA A 196     1555   1555  1.32  
       C   ABA A 196                 N   THR A 197     1555   1555  1.29  

>  <CISPEP>
   1 GLY A  170    PRO A  171          0        11.87                     
   2 THR A  226    PRO A  227          0       -12.36                     

>  <SITE>
   1 AC1 13 ALA A  80  SER A  81  KCX A  84  TRP A 115                    
   2 AC1 13 SER A 128  VAL A 130  LEU A 168  VAL A 169                    
   3 AC1 13 GLY A 220  TRP A 221  MET A 223  BCT A 309                    
   4 AC1 13 HOH A 469                                                     
   1 AC2  6 GLY A 141  LEU A 142  GLU A 143  HOH A 455                    
   2 AC2  6 HOH A 458  HOH A 499                                          
   1 AC3  6 GLN A  50  THR A  51  GLN A  52  ABA A 114                    
   2 AC3  6 LYS A 117  LYS A 253                                          
   1 AC4 10 GLN A 178  ASN A 181  HOH A 412  HOH A 437                    
   2 AC4 10 HOH A 441  HOH A 464  HOH A 526  HOH A 609                    
   3 AC4 10 HOH A 659  HOH A 660                                          
   1 AC5  2 HOH A 456  HOH A 563                                          
   1 AC6  3 LYS A 194  LEU A 195  HOH A 416                               
   1 AC7  2 HIS A 188  LYS A 243                                          
   1 AC8  3 GLY A 273  HOH A 409  HOH A 518                               
   1 AC9  2 JW1 A 301  HOH A 484                                          
   1 AD1  3 TYR A 112  ABA A 114  LEU A 127                               

>  <ORIGX1>
      1.000000  0.000000  0.000000        0.00000                         

>  <ORIGX2>
      0.000000  1.000000  0.000000        0.00000                         

>  <ORIGX3>
      0.000000  0.000000  1.000000        0.00000                         

>  <SCALE1>
      0.009771  0.000000  0.000000        0.00000                         

>  <SCALE2>
      0.000000  0.009771  0.000000        0.00000                         

>  <SCALE3>
      0.000000  0.000000  0.011704        0.00000                         

>  <ANISOU>
  457  N   SER A  81     1062   1355   1649    108   -270     72       N  
  458  CA  SER A  81      963   1411   1720     78   -267     96       C  
  459  C   SER A  81     1149   1438   1599    -45   -416    124       C  
  460  O   SER A  81     1147   1385   1616      0   -391     88       O  
  461  CB  SER A  81     1121   1417   1579     69   -374    -45       C  
  462  OG  SER A  81     1089   1511   1828    -56   -221    126       O  
 2109  C1  JW1 A 301     1908   3929   2617  -1284    212    387       C  
 2110  C2  JW1 A 301     2325   5110   2571  -1638    -89   -325       C  
 2111  C3  JW1 A 301     1815   3269   2421   -952   -195    175       C  
 2112  C4  JW1 A 301     1398   1780   1902   -223   -117    -32       C  
 2113  C5  JW1 A 301     1286   2270   2222    -62    -80    122       C  
 2114  C6  JW1 A 301     1806   2505   2390   -305   -149    361       C  
 2115  B7  JW1 A 301     1367   1453   1865   -239   -294    420       B  
 2116  O8  JW1 A 301     1443   1775   1949     31   -174    147       O  
 2117  O9  JW1 A 301     1220   1481   1792    -21   -346     83       O  
 2118  N10 JW1 A 301     2101   3048   2708    -32    177    539       N  
 2119  C11 JW1 A 301     2621   3587   3453   -918    182    123       C  
 2120  O12 JW1 A 301     3513   4158   3573   -624   1518     22       O  
 2121  C13 JW1 A 301     3805   5825   4649  -1503   1907   -214       C  
 2122  C14 JW1 A 301     6263   5558   7083  -2236   3617   -168       C  
 2123  C15 JW1 A 301     4993   5287   3815   -514    435   -167       C  
 2124  C16 JW1 A 301     3777   7041   8826   -904   1889    394       C  
 2125  O17 JW1 A 301     2416   5288   4586   -666    161   -109       O  

>  <MASTER>
      429    0   13   11    6    0   17    6 2322    1   95   19          

$$$$
