start_structures/Ligand_Substrate/Ligand_Complex_Stripped/JW3_5TG7.pdb
 OpenBabel08222315213D

 24 25  0  0  1  0  0  0  0  0999 V2000
   -1.8790   27.2040  -14.5150 N   0  0  0  0  0  0  0  0  0  0  0  0
   -1.4710   26.6850  -13.2130 C   0  0  2  0  0  0  0  0  0  0  0  0
   -2.5030   25.7500  -12.5820 C   0  0  0  0  0  0  0  0  0  0  0  0
   -2.1420   25.0520  -11.6230 O   0  0  0  0  0  0  0  0  0  0  0  0
   -0.9670   27.8140  -12.2710 C   0  0  0  0  0  0  0  0  0  0  0  0
    0.0280   28.6100  -12.9590 O   0  0  0  0  0  0  0  0  0  0  0  0
    1.6920   31.3210  -17.9340 O   0  0  0  0  0  0  0  0  0  0  0  0
    2.8070   31.3730  -17.3990 C   0  0  0  0  0  0  0  0  0  0  0  0
    2.6610   31.2880  -15.8960 C   0  0  0  0  0  0  0  0  0  0  0  0
    1.4460   30.7200  -15.3300 C   0  0  0  0  0  0  0  0  0  0  0  0
    1.1990   30.6400  -13.9260 C   0  0  0  0  0  0  0  0  0  0  0  0
   -0.1110   30.0680  -13.2500 B   0  0  0  0  0  0  0  0  0  0  0  0
   -0.3050   30.5560  -11.8430 O   0  0  0  0  0  0  0  0  0  0  0  0
   -1.3690   30.0740  -14.0750 O   0  0  0  0  0  0  0  0  0  0  0  0
    2.2280   31.1850  -13.1290 C   0  0  0  0  0  0  0  0  0  0  0  0
    3.3930   31.7930  -13.6990 C   0  0  0  0  0  0  0  0  0  0  0  0
    3.6520   31.8550  -15.0750 C   0  0  0  0  0  0  0  0  0  0  0  0
    3.9710   31.6010  -18.0820 N   0  0  0  0  0  0  0  0  0  0  0  0
    3.9530   31.7260  -19.5480 C   0  0  0  0  0  0  0  0  0  0  0  0
    5.1340   32.2590  -20.3580 C   0  0  0  0  0  0  0  0  0  0  0  0
    5.0890   33.5340  -20.9520 O   0  0  0  0  0  0  0  0  0  0  0  0
    5.6760   33.4790  -22.2110 C   0  0  0  0  0  0  0  0  0  0  0  0
    6.1110   32.1720  -22.4150 C   0  0  0  0  0  0  0  0  0  0  0  0
    5.7920   31.4260  -21.2840 C   0  0  0  0  0  0  0  0  0  0  0  0
  2  1  1  6  0  0  0
  2  3  1  0  0  0  0
  2  5  1  0  0  0  0
  3  4  2  0  0  0  0
  6 12  1  0  0  0  0
  6  5  1  0  0  0  0
  7  8  2  0  0  0  0
  8  9  1  0  0  0  0
  8 18  1  0  0  0  0
  9 10  2  0  0  0  0
  9 17  1  0  0  0  0
 10 11  1  0  0  0  0
 11 12  1  0  0  0  0
 11 15  2  0  0  0  0
 12 13  1  0  0  0  0
 12 14  1  0  0  0  0
 15 16  1  0  0  0  0
 16 17  2  0  0  0  0
 18 19  2  0  0  0  0
 19 20  1  0  0  0  0
 20 21  1  0  0  0  0
 20 24  2  0  0  0  0
 21 22  1  0  0  0  0
 22 23  2  0  0  0  0
 23 24  1  0  0  0  0
M  END
>  <HEADER>
    HYDROLASE/HYDROLASE INHIBITOR           27-SEP-16   5TG7              

>  <TITLE>
    OXA-24/40 IN COMPLEX WITH BORONIC ACID BA3                            

>  <COMPND>
    MOL_ID: 1;                                                            
   2 MOLECULE: BETA-LACTAMASE;                                            
   3 CHAIN: A;                                                            
   4 SYNONYM: BETA-LACTAMASE OXA-33,BETALACTAMASE OXA24,CARBAPENEM-       
   5 HYDROLYZING BETA-LACTAMASE OXA-40,CARBAPENEM-HYDROLYZING             
   6 OXACILLINASE,CARBAPENEM-HYDROLYZING OXACILLINASE OXA-40,CARBAPENEMASE
   7 OXA-24,CLASS D BETA-LACTAMASE OXA-40,OXA24 B-LACTAMASE,OXA40;        
   8 EC: 3.5.2.6;                                                         
   9 ENGINEERED: YES                                                      

>  <SOURCE>
    MOL_ID: 1;                                                            
   2 ORGANISM_SCIENTIFIC: ACINETOBACTER BAUMANNII;                        
   3 ORGANISM_TAXID: 470;                                                 
   4 GENE: BLAOXA-33, BLA-OXA-40, BLAOXA-24, BLAOXA-40, OXA-24, OXA40;    
   5 EXPRESSION_SYSTEM: ESCHERICHIA COLI BL21(DE3);                       
   6 EXPRESSION_SYSTEM_TAXID: 469008;                                     
   7 EXPRESSION_SYSTEM_PLASMID: PET24A                                    

>  <KEYWDS>
    INHIBITOR, COMPLEX, LACTAMASE, OXA, HYDROLASE-HYDROLASE INHIBITOR     
   2 COMPLEX                                                              

>  <EXPDTA>
    X-RAY DIFFRACTION                                                     

>  <AUTHOR>
    R.A.POWERS,J.P.WERNER,J.M.MITCHELL                                    

>  <REVDAT>
   4   11-DEC-19 5TG7    1       REMARK                                   
   3   20-SEP-17 5TG7    1       REMARK                                   
   2   08-MAR-17 5TG7    1       JRNL                                     
   1   11-JAN-17 5TG7    0                                                

>  <JRNL>
      AUTH   J.P.WERNER,J.M.MITCHELL,M.A.TARACILA,R.A.BONOMO,R.A.POWERS   
      TITL   EXPLORING THE POTENTIAL OF BORONIC ACIDS AS INHIBITORS OF    
      TITL 2 OXA-24/40 BETA-LACTAMASE.                                    
      REF    PROTEIN SCI.                  V.  26   515 2017              
      REFN                   ESSN 1469-896X                               
      PMID   27997706                                                     
      DOI    10.1002/PRO.3100                                             

>  <REMARK>
   2                                                                      
   2 RESOLUTION.    2.28 ANGSTROMS.                                       
   3                                                                      
   3 REFINEMENT.                                                          
   3   PROGRAM     : REFMAC 5.8.0155                                      
   3   AUTHORS     : MURSHUDOV,SKUBAK,LEBEDEV,PANNU,STEINER,              
   3               : NICHOLLS,WINN,LONG,VAGIN                             
   3                                                                      
   3    REFINEMENT TARGET : NULL                                          
   3                                                                      
   3  DATA USED IN REFINEMENT.                                            
   3   RESOLUTION RANGE HIGH (ANGSTROMS) : 2.28                           
   3   RESOLUTION RANGE LOW  (ANGSTROMS) : 103.08                         
   3   DATA CUTOFF            (SIGMA(F)) : NULL                           
   3   COMPLETENESS FOR RANGE        (%) : 98.6                           
   3   NUMBER OF REFLECTIONS             : 20389                          
   3                                                                      
   3  FIT TO DATA USED IN REFINEMENT.                                     
   3   CROSS-VALIDATION METHOD          : THROUGHOUT                      
   3   FREE R VALUE TEST SET SELECTION  : RANDOM                          
   3   R VALUE     (WORKING + TEST SET) : 0.206                           
   3   R VALUE            (WORKING SET) : 0.204                           
   3   FREE R VALUE                     : 0.252                           
   3   FREE R VALUE TEST SET SIZE   (%) : 4.900                           
   3   FREE R VALUE TEST SET COUNT      : 1060                            
   3                                                                      
   3  FIT IN THE HIGHEST RESOLUTION BIN.                                  
   3   TOTAL NUMBER OF BINS USED           : 20                           
   3   BIN RESOLUTION RANGE HIGH       (A) : 2.28                         
   3   BIN RESOLUTION RANGE LOW        (A) : 2.34                         
   3   REFLECTION IN BIN     (WORKING SET) : 1440                         
   3   BIN COMPLETENESS (WORKING+TEST) (%) : 97.89                        
   3   BIN R VALUE           (WORKING SET) : 0.3480                       
   3   BIN FREE R VALUE SET COUNT          : 88                           
   3   BIN FREE R VALUE                    : 0.3390                       
   3                                                                      
   3  NUMBER OF NON-HYDROGEN ATOMS USED IN REFINEMENT.                    
   3   PROTEIN ATOMS            : 1917                                    
   3   NUCLEIC ACID ATOMS       : 0                                       
   3   HETEROGEN ATOMS          : 34                                      
   3   SOLVENT ATOMS            : 84                                      
   3                                                                      
   3  B VALUES.                                                           
   3   FROM WILSON PLOT           (A**2) : NULL                           
   3   MEAN B VALUE      (OVERALL, A**2) : 46.89                          
   3   OVERALL ANISOTROPIC B VALUE.                                       
   3    B11 (A**2) : -4.16000                                             
   3    B22 (A**2) : -4.16000                                             
   3    B33 (A**2) : 8.33000                                              
   3    B12 (A**2) : 0.00000                                              
   3    B13 (A**2) : 0.00000                                              
   3    B23 (A**2) : 0.00000                                              
   3                                                                      
   3  ESTIMATED OVERALL COORDINATE ERROR.                                 
   3   ESU BASED ON R VALUE                            (A): 0.195         
   3   ESU BASED ON FREE R VALUE                       (A): 0.186         
   3   ESU BASED ON MAXIMUM LIKELIHOOD                 (A): 0.163         
   3   ESU FOR B VALUES BASED ON MAXIMUM LIKELIHOOD (A**2): 7.348         
   3                                                                      
   3 CORRELATION COEFFICIENTS.                                            
   3   CORRELATION COEFFICIENT FO-FC      : 0.942                         
   3   CORRELATION COEFFICIENT FO-FC FREE : 0.920                         
   3                                                                      
   3  RMS DEVIATIONS FROM IDEAL VALUES        COUNT    RMS    WEIGHT      
   3   BOND LENGTHS REFINED ATOMS        (A):  2005 ; 0.020 ; 0.019       
   3   BOND LENGTHS OTHERS               (A):  NULL ;  NULL ;  NULL       
   3   BOND ANGLES REFINED ATOMS   (DEGREES):  2713 ; 2.237 ; 1.972       
   3   BOND ANGLES OTHERS          (DEGREES):  NULL ;  NULL ;  NULL       
   3   TORSION ANGLES, PERIOD 1    (DEGREES):   248 ; 8.379 ; 5.060       
   3   TORSION ANGLES, PERIOD 2    (DEGREES):    86 ;40.315 ;25.581       
   3   TORSION ANGLES, PERIOD 3    (DEGREES):   351 ;18.446 ;15.000       
   3   TORSION ANGLES, PERIOD 4    (DEGREES):     7 ;20.844 ;15.000       
   3   CHIRAL-CENTER RESTRAINTS       (A**3):   298 ; 0.178 ; 0.200       
   3   GENERAL PLANES REFINED ATOMS      (A):  1503 ; 0.009 ; 0.021       
   3   GENERAL PLANES OTHERS             (A):  NULL ;  NULL ;  NULL       
   3   NON-BONDED CONTACTS REFINED ATOMS (A):  NULL ;  NULL ;  NULL       
   3   NON-BONDED CONTACTS OTHERS        (A):  NULL ;  NULL ;  NULL       
   3   NON-BONDED TORSION REFINED ATOMS  (A):  NULL ;  NULL ;  NULL       
   3   NON-BONDED TORSION OTHERS         (A):  NULL ;  NULL ;  NULL       
   3   H-BOND (X...Y) REFINED ATOMS      (A):  NULL ;  NULL ;  NULL       
   3   H-BOND (X...Y) OTHERS             (A):  NULL ;  NULL ;  NULL       
   3   POTENTIAL METAL-ION REFINED ATOMS (A):  NULL ;  NULL ;  NULL       
   3   POTENTIAL METAL-ION OTHERS        (A):  NULL ;  NULL ;  NULL       
   3   SYMMETRY VDW REFINED ATOMS        (A):  NULL ;  NULL ;  NULL       
   3   SYMMETRY VDW OTHERS               (A):  NULL ;  NULL ;  NULL       
   3   SYMMETRY H-BOND REFINED ATOMS     (A):  NULL ;  NULL ;  NULL       
   3   SYMMETRY H-BOND OTHERS            (A):  NULL ;  NULL ;  NULL       
   3   SYMMETRY METAL-ION REFINED ATOMS  (A):  NULL ;  NULL ;  NULL       
   3   SYMMETRY METAL-ION OTHERS         (A):  NULL ;  NULL ;  NULL       
   3                                                                      
   3  ISOTROPIC THERMAL FACTOR RESTRAINTS.     COUNT   RMS    WEIGHT      
   3   MAIN-CHAIN BOND REFINED ATOMS  (A**2):   985 ; 3.875 ; 4.476       
   3   MAIN-CHAIN BOND OTHER ATOMS    (A**2):  NULL ;  NULL ;  NULL       
   3   MAIN-CHAIN ANGLE REFINED ATOMS (A**2):  1233 ; 5.346 ; 6.691       
   3   MAIN-CHAIN ANGLE OTHER ATOMS   (A**2):  NULL ;  NULL ;  NULL       
   3   SIDE-CHAIN BOND REFINED ATOMS  (A**2):  1020 ; 5.859 ; 4.873       
   3   SIDE-CHAIN BOND OTHER ATOMS    (A**2):  NULL ;  NULL ;  NULL       
   3   SIDE-CHAIN ANGLE REFINED ATOMS (A**2):  NULL ;  NULL ;  NULL       
   3   SIDE-CHAIN ANGLE OTHER ATOMS   (A**2):  NULL ;  NULL ;  NULL       
   3   LONG RANGE B REFINED ATOMS     (A**2):  3007 ; 8.763 ;60.268       
   3   LONG RANGE B OTHER ATOMS       (A**2):  NULL ;  NULL ;  NULL       
   3                                                                      
   3 ANISOTROPIC THERMAL FACTOR RESTRAINTS.    COUNT   RMS   WEIGHT       
   3   RIGID-BOND RESTRAINTS          (A**2):  NULL ;  NULL ;  NULL       
   3   SPHERICITY; FREE ATOMS         (A**2):  NULL ;  NULL ;  NULL       
   3   SPHERICITY; BONDED ATOMS       (A**2):  NULL ;  NULL ;  NULL       
   3                                                                      
   3  NCS RESTRAINTS STATISTICS                                           
   3   NUMBER OF DIFFERENT NCS GROUPS : NULL                              
   3                                                                      
   3  TLS DETAILS                                                         
   3   NUMBER OF TLS GROUPS  : NULL                                       
   3                                                                      
   3  BULK SOLVENT MODELLING.                                             
   3   METHOD USED : NULL                                                 
   3   PARAMETERS FOR MASK CALCULATION                                    
   3   VDW PROBE RADIUS   : 1.20                                          
   3   ION PROBE RADIUS   : 0.80                                          
   3   SHRINKAGE RADIUS   : 0.80                                          
   3                                                                      
   3  OTHER REFINEMENT REMARKS: HYDROGENS HAVE BEEN USED IF PRESENT IN    
   3  THE INPUT                                                           
   4                                                                      
   4 5TG7 COMPLIES WITH FORMAT V. 3.30, 13-JUL-11                         
 100                                                                      
 100 THIS ENTRY HAS BEEN PROCESSED BY RCSB ON 28-SEP-16.                  
 100 THE DEPOSITION ID IS D_1000223885.                                   
 200                                                                      
 200 EXPERIMENTAL DETAILS                                                 
 200  EXPERIMENT TYPE                : X-RAY DIFFRACTION                  
 200  DATE OF DATA COLLECTION        : 13-JUN-15                          
 200  TEMPERATURE           (KELVIN) : 100                                
 200  PH                             : 8.5                                
 200  NUMBER OF CRYSTALS USED        : 1                                  
 200                                                                      
 200  SYNCHROTRON              (Y/N) : Y                                  
 200  RADIATION SOURCE               : APS                                
 200  BEAMLINE                       : 21-ID-D                            
 200  X-RAY GENERATOR MODEL          : NULL                               
 200  MONOCHROMATIC OR LAUE    (M/L) : M                                  
 200  WAVELENGTH OR RANGE        (A) : 1.07807                            
 200  MONOCHROMATOR                  : NULL                               
 200  OPTICS                         : NULL                               
 200                                                                      
 200  DETECTOR TYPE                  : CCD                                
 200  DETECTOR MANUFACTURER          : RAYONIX MX-300                     
 200  INTENSITY-INTEGRATION SOFTWARE : XDS                                
 200  DATA SCALING SOFTWARE          : XSCALE                             
 200                                                                      
 200  NUMBER OF UNIQUE REFLECTIONS   : 21572                              
 200  RESOLUTION RANGE HIGH      (A) : 2.280                              
 200  RESOLUTION RANGE LOW       (A) : 103.080                            
 200  REJECTION CRITERIA  (SIGMA(I)) : NULL                               
 200                                                                      
 200 OVERALL.                                                             
 200  COMPLETENESS FOR RANGE     (%) : 99.0                               
 200  DATA REDUNDANCY                : 7.900                              
 200  R MERGE                    (I) : 0.09900                            
 200  R SYM                      (I) : NULL                               
 200  <I/SIGMA(I)> FOR THE DATA SET  : 15.0000                            
 200                                                                      
 200 IN THE HIGHEST RESOLUTION SHELL.                                     
 200  HIGHEST RESOLUTION SHELL, RANGE HIGH (A) : NULL                     
 200  HIGHEST RESOLUTION SHELL, RANGE LOW  (A) : NULL                     
 200  COMPLETENESS FOR SHELL     (%) : NULL                               
 200  DATA REDUNDANCY IN SHELL       : NULL                               
 200  R MERGE FOR SHELL          (I) : NULL                               
 200  R SYM FOR SHELL            (I) : NULL                               
 200  <I/SIGMA(I)> FOR SHELL         : NULL                               
 200                                                                      
 200 DIFFRACTION PROTOCOL: SINGLE WAVELENGTH                              
 200 METHOD USED TO DETERMINE THE STRUCTURE: MOLECULAR REPLACEMENT        
 200 SOFTWARE USED: PHASER                                                
 200 STARTING MODEL: 3PAE                                                 
 200                                                                      
 200 REMARK: NULL                                                         
 280                                                                      
 280 CRYSTAL                                                              
 280 SOLVENT CONTENT, VS   (%): 70.35                                     
 280 MATTHEWS COEFFICIENT, VM (ANGSTROMS**3/DA): 4.15                     
 280                                                                      
 280 CRYSTALLIZATION CONDITIONS: 100 MM TRIS-HCL, PH 8.5, 2.0 M           
 280  AMMONIUM SULFATE, VAPOR DIFFUSION, HANGING DROP, TEMPERATURE        
 280  298.0K                                                              
 290                                                                      
 290 CRYSTALLOGRAPHIC SYMMETRY                                            
 290 SYMMETRY OPERATORS FOR SPACE GROUP: P 41 21 2                        
 290                                                                      
 290      SYMOP   SYMMETRY                                                
 290     NNNMMM   OPERATOR                                                
 290       1555   X,Y,Z                                                   
 290       2555   -X,-Y,Z+1/2                                             
 290       3555   -Y+1/2,X+1/2,Z+1/4                                      
 290       4555   Y+1/2,-X+1/2,Z+3/4                                      
 290       5555   -X+1/2,Y+1/2,-Z+1/4                                     
 290       6555   X+1/2,-Y+1/2,-Z+3/4                                     
 290       7555   Y,X,-Z                                                  
 290       8555   -Y,-X,-Z+1/2                                            
 290                                                                      
 290     WHERE NNN -> OPERATOR NUMBER                                     
 290           MMM -> TRANSLATION VECTOR                                  
 290                                                                      
 290 CRYSTALLOGRAPHIC SYMMETRY TRANSFORMATIONS                            
 290 THE FOLLOWING TRANSFORMATIONS OPERATE ON THE ATOM/HETATM             
 290 RECORDS IN THIS ENTRY TO PRODUCE CRYSTALLOGRAPHICALLY                
 290 RELATED MOLECULES.                                                   
 290   SMTRY1   1  1.000000  0.000000  0.000000        0.00000            
 290   SMTRY2   1  0.000000  1.000000  0.000000        0.00000            
 290   SMTRY3   1  0.000000  0.000000  1.000000        0.00000            
 290   SMTRY1   2 -1.000000  0.000000  0.000000        0.00000            
 290   SMTRY2   2  0.000000 -1.000000  0.000000        0.00000            
 290   SMTRY3   2  0.000000  0.000000  1.000000       43.21850            
 290   SMTRY1   3  0.000000 -1.000000  0.000000       51.54150            
 290   SMTRY2   3  1.000000  0.000000  0.000000       51.54150            
 290   SMTRY3   3  0.000000  0.000000  1.000000       21.60925            
 290   SMTRY1   4  0.000000  1.000000  0.000000       51.54150            
 290   SMTRY2   4 -1.000000  0.000000  0.000000       51.54150            
 290   SMTRY3   4  0.000000  0.000000  1.000000       64.82775            
 290   SMTRY1   5 -1.000000  0.000000  0.000000       51.54150            
 290   SMTRY2   5  0.000000  1.000000  0.000000       51.54150            
 290   SMTRY3   5  0.000000  0.000000 -1.000000       21.60925            
 290   SMTRY1   6  1.000000  0.000000  0.000000       51.54150            
 290   SMTRY2   6  0.000000 -1.000000  0.000000       51.54150            
 290   SMTRY3   6  0.000000  0.000000 -1.000000       64.82775            
 290   SMTRY1   7  0.000000  1.000000  0.000000        0.00000            
 290   SMTRY2   7  1.000000  0.000000  0.000000        0.00000            
 290   SMTRY3   7  0.000000  0.000000 -1.000000        0.00000            
 290   SMTRY1   8  0.000000 -1.000000  0.000000        0.00000            
 290   SMTRY2   8 -1.000000  0.000000  0.000000        0.00000            
 290   SMTRY3   8  0.000000  0.000000 -1.000000       43.21850            
 290                                                                      
 290 REMARK: NULL                                                         
 300                                                                      
 300 BIOMOLECULE: 1                                                       
 300 SEE REMARK 350 FOR THE AUTHOR PROVIDED AND/OR PROGRAM                
 300 GENERATED ASSEMBLY INFORMATION FOR THE STRUCTURE IN                  
 300 THIS ENTRY. THE REMARK MAY ALSO PROVIDE INFORMATION ON               
 300 BURIED SURFACE AREA.                                                 
 350                                                                      
 350 COORDINATES FOR A COMPLETE MULTIMER REPRESENTING THE KNOWN           
 350 BIOLOGICALLY SIGNIFICANT OLIGOMERIZATION STATE OF THE                
 350 MOLECULE CAN BE GENERATED BY APPLYING BIOMT TRANSFORMATIONS          
 350 GIVEN BELOW.  BOTH NON-CRYSTALLOGRAPHIC AND                          
 350 CRYSTALLOGRAPHIC OPERATIONS ARE GIVEN.                               
 350                                                                      
 350 BIOMOLECULE: 1                                                       
 350 AUTHOR DETERMINED BIOLOGICAL UNIT: MONOMERIC                         
 350 SOFTWARE DETERMINED QUATERNARY STRUCTURE: MONOMERIC                  
 350 SOFTWARE USED: PISA                                                  
 350 APPLY THE FOLLOWING TO CHAINS: A                                     
 350   BIOMT1   1  1.000000  0.000000  0.000000        0.00000            
 350   BIOMT2   1  0.000000  1.000000  0.000000        0.00000            
 350   BIOMT3   1  0.000000  0.000000  1.000000        0.00000            
 465                                                                      
 465 MISSING RESIDUES                                                     
 465 THE FOLLOWING RESIDUES WERE NOT LOCATED IN THE                       
 465 EXPERIMENT. (M=MODEL NUMBER; RES=RESIDUE NAME; C=CHAIN               
 465 IDENTIFIER; SSSEQ=SEQUENCE NUMBER; I=INSERTION CODE.)                
 465                                                                      
 465   M RES C SSSEQI                                                     
 465     MET A    31                                                      
 470                                                                      
 470 MISSING ATOM                                                         
 470 THE FOLLOWING RESIDUES HAVE MISSING ATOMS (M=MODEL NUMBER;           
 470 RES=RESIDUE NAME; C=CHAIN IDENTIFIER; SSEQ=SEQUENCE NUMBER;          
 470 I=INSERTION CODE):                                                   
 470   M RES CSSEQI  ATOMS                                                
 470     LYS A 109    CG   CD   CE   NZ                                   
 470     LYS A 150    CG   CD   CE   NZ                                   
 470     LYS A 203    CG   CD   CE   NZ                                   
 470     LYS A 242    CG   CD   CE   NZ                                   
 470     GLU A 254    CG   CD   OE1  OE2                                  
 500                                                                      
 500 GEOMETRY AND STEREOCHEMISTRY                                         
 500 SUBTOPIC: CLOSE CONTACTS IN SAME ASYMMETRIC UNIT                     
 500                                                                      
 500 THE FOLLOWING ATOMS ARE IN CLOSE CONTACT.                            
 500                                                                      
 500  ATM1  RES C  SSEQI   ATM2  RES C  SSEQI           DISTANCE          
 500   O    HOH A   461     O    HOH A   471              2.16            
 500                                                                      
 500 REMARK: NULL                                                         
 500                                                                      
 500 GEOMETRY AND STEREOCHEMISTRY                                         
 500 SUBTOPIC: COVALENT BOND ANGLES                                       
 500                                                                      
 500 THE STEREOCHEMICAL PARAMETERS OF THE FOLLOWING RESIDUES              
 500 HAVE VALUES WHICH DEVIATE FROM EXPECTED VALUES BY MORE               
 500 THAN 6*RMSD (M=MODEL NUMBER; RES=RESIDUE NAME; C=CHAIN               
 500 IDENTIFIER; SSEQ=SEQUENCE NUMBER; I=INSERTION CODE).                 
 500                                                                      
 500 STANDARD TABLE:                                                      
 500 FORMAT: (10X,I3,1X,A3,1X,A1,I4,A1,3(1X,A4,2X),12X,F5.1)              
 500                                                                      
 500 EXPECTED VALUES PROTEIN: ENGH AND HUBER, 1999                        
 500 EXPECTED VALUES NUCLEIC ACID: CLOWNEY ET AL 1996                     
 500                                                                      
 500  M RES CSSEQI ATM1   ATM2   ATM3                                     
 500    ASP A 184   CB  -  CG  -  OD1 ANGL. DEV. =   5.4 DEGREES          
 500                                                                      
 500 REMARK: NULL                                                         
 500                                                                      
 500 GEOMETRY AND STEREOCHEMISTRY                                         
 500 SUBTOPIC: TORSION ANGLES                                             
 500                                                                      
 500 TORSION ANGLES OUTSIDE THE EXPECTED RAMACHANDRAN REGIONS:            
 500 (M=MODEL NUMBER; RES=RESIDUE NAME; C=CHAIN IDENTIFIER;               
 500 SSEQ=SEQUENCE NUMBER; I=INSERTION CODE).                             
 500                                                                      
 500 STANDARD TABLE:                                                      
 500 FORMAT:(10X,I3,1X,A3,1X,A1,I4,A1,4X,F7.2,3X,F7.2)                    
 500                                                                      
 500 EXPECTED VALUES: GJ KLEYWEGT AND TA JONES (1996). PHI/PSI-           
 500 CHOLOGY: RAMACHANDRAN REVISITED. STRUCTURE 4, 1395 - 1400            
 500                                                                      
 500  M RES CSSEQI        PSI       PHI                                   
 500    ALA A  80     -139.49     41.37                                   
 500    ALA A 129       87.05    -67.70                                   
 500    ALA A 129       84.60    -67.70                                   
 500    ASN A 165       13.61   -147.58                                   
 500    ALA A 239      -35.06    -39.33                                   
 500    GLU A 254      119.14    -35.65                                   
 500                                                                      
 500 REMARK: NULL                                                         
 525                                                                      
 525 SOLVENT                                                              
 525                                                                      
 525 THE SOLVENT MOLECULES HAVE CHAIN IDENTIFIERS THAT                    
 525 INDICATE THE POLYMER CHAIN WITH WHICH THEY ARE MOST                  
 525 CLOSELY ASSOCIATED. THE REMARK LISTS ALL THE SOLVENT                 
 525 MOLECULES WHICH ARE MORE THAN 5A AWAY FROM THE                       
 525 NEAREST POLYMER CHAIN (M = MODEL NUMBER;                             
 525 RES=RESIDUE NAME; C=CHAIN IDENTIFIER; SSEQ=SEQUENCE                  
 525 NUMBER; I=INSERTION CODE):                                           
 525                                                                      
 525  M RES CSSEQI                                                        
 525    HOH A 481        DISTANCE =  5.81 ANGSTROMS                       
 525    HOH A 482        DISTANCE =  6.24 ANGSTROMS                       
 525    HOH A 483        DISTANCE =  6.60 ANGSTROMS                       
 525    HOH A 484        DISTANCE =  9.37 ANGSTROMS                       
 800                                                                      
 800 SITE                                                                 
 800 SITE_IDENTIFIER: AC1                                                 
 800 EVIDENCE_CODE: SOFTWARE                                              
 800 SITE_DESCRIPTION: binding site for residue JW3 A 301                 
 800                                                                      
 800 SITE_IDENTIFIER: AC2                                                 
 800 EVIDENCE_CODE: SOFTWARE                                              
 800 SITE_DESCRIPTION: binding site for residue SO4 A 302                 
 800                                                                      
 800 SITE_IDENTIFIER: AC3                                                 
 800 EVIDENCE_CODE: SOFTWARE                                              
 800 SITE_DESCRIPTION: binding site for residue SO4 A 303                 
 800                                                                      
 800 SITE_IDENTIFIER: AC4                                                 
 800 EVIDENCE_CODE: SOFTWARE                                              
 800 SITE_DESCRIPTION: binding site for residue MEE A 304                 
 800                                                                      
 800 SITE_IDENTIFIER: AC5                                                 
 800 EVIDENCE_CODE: SOFTWARE                                              
 800 SITE_DESCRIPTION: binding site for residue BCT A 305                 
 900                                                                      
 900 RELATED ENTRIES                                                      
 900 RELATED ID: 5TG4   RELATED DB: PDB                                   
 900 RELATED ID: 5TG5   RELATED DB: PDB                                   
 900 RELATED ID: 5TG6   RELATED DB: PDB                                   
 999                                                                      
 999 SEQUENCE                                                             
 999 MET 114 UNDERGOES RADIATION DAMAGE AND IS SEEN AS AN ALPHA-          
 999 AMINOBUTYRIC ACID (ABA 114) AND A METHANETHIOL                       

>  <DBREF>
 5TG7 A   32   275  UNP    Q8RLA6   Q8RLA6_ACIBA    32    275             

>  <SEQADV>
 5TG7 MET A   31  UNP  Q8RLA6              INITIATING METHIONINE          
 5TG7 ABA A  114  UNP  Q8RLA6    MET   114 MODIFIED RESIDUE               

>  <SEQRES>
   1 A  245  MET HIS ILE SER SER GLN GLN HIS GLU LYS ALA ILE LYS          
   2 A  245  SER TYR PHE ASP GLU ALA GLN THR GLN GLY VAL ILE ILE          
   3 A  245  ILE LYS GLU GLY LYS ASN LEU SER THR TYR GLY ASN ALA          
   4 A  245  LEU ALA ARG ALA ASN LYS GLU TYR VAL PRO ALA SER THR          
   5 A  245  PHE KCX MET LEU ASN ALA LEU ILE GLY LEU GLU ASN HIS          
   6 A  245  LYS ALA THR THR ASN GLU ILE PHE LYS TRP ASP GLY LYS          
   7 A  245  LYS ARG THR TYR PRO ABA TRP GLU LYS ASP MET THR LEU          
   8 A  245  GLY GLU ALA MET ALA LEU SER ALA VAL PRO VAL TYR GLN          
   9 A  245  GLU LEU ALA ARG ARG THR GLY LEU GLU LEU MET GLN LYS          
  10 A  245  GLU VAL LYS ARG VAL ASN PHE GLY ASN THR ASN ILE GLY          
  11 A  245  THR GLN VAL ASP ASN PHE TRP LEU VAL GLY PRO LEU LYS          
  12 A  245  ILE THR PRO VAL GLN GLU VAL ASN PHE ALA ASP ASP LEU          
  13 A  245  ALA HIS ASN ARG LEU PRO PHE LYS LEU GLU THR GLN GLU          
  14 A  245  GLU VAL LYS LYS MET LEU LEU ILE LYS GLU VAL ASN GLY          
  15 A  245  SER LYS ILE TYR ALA LYS SER GLY TRP GLY MET GLY VAL          
  16 A  245  THR PRO GLN VAL GLY TRP LEU THR GLY TRP VAL GLU GLN          
  17 A  245  ALA ASN GLY LYS LYS ILE PRO PHE SER LEU ASN LEU GLU          
  18 A  245  MET LYS GLU GLY MET SER GLY SER ILE ARG ASN GLU ILE          
  19 A  245  THR TYR LYS SER LEU GLU ASN LEU GLY ILE ILE                  

>  <MODRES>
 5TG7 KCX A   84  LYS  MODIFIED RESIDUE                                   

>  <HET>
 KCX  A  84      12                                                       
 ABA  A 114       6                                                       
 JW3  A 301      18                                                       
 SO4  A 302       5                                                       
 SO4  A 303       5                                                       
 MEE  A 304       4                                                       
 BCT  A 305       4                                                       

>  <HETNAM>
     KCX LYSINE NZ-CARBOXYLIC ACID                                        
     ABA ALPHA-AMINOBUTYRIC ACID                                          
     JW3 (3-{[(FURAN-2-YL)METHYL]CARBAMOYL}PHENYL)BORONIC ACID            
     SO4 SULFATE ION                                                      
     MEE METHANETHIOL                                                     
     BCT BICARBONATE ION                                                  

>  <FORMUL>
   1  KCX    C7 H14 N2 O4                                                 
   1  ABA    C4 H9 N O2                                                   
   2  JW3    C12 H12 B N O4                                               
   3  SO4    2(O4 S 2-)                                                   
   5  MEE    C H4 S                                                       
   6  BCT    C H O3 1-                                                    
   7  HOH   *84(H2 O)                                                     

>  <HELIX>
   1 AA1 SER A   34  ALA A   49  1                                  16    
   2 AA2 ALA A   69  LYS A   75  5                                   7    
   3 AA3 PRO A   79  SER A   81  5                                   3    
   4 AA4 THR A   82  ASN A   94  1                                  13    
   5 AA5 TYR A  112  GLU A  116  5                                   5    
   6 AA6 THR A  120  LEU A  127  1                                   8    
   7 AA7 ALA A  129  GLY A  141  1                                  13    
   8 AA8 GLY A  141  ASN A  153  1                                  13    
   9 AA9 ASN A  165  GLY A  170  1                                   6    
  10 AB1 THR A  175  HIS A  188  1                                  14    
  11 AB2 LYS A  194  MET A  204  1                                  11    
  12 AB3 GLY A  258  LEU A  272  1                                  15    

>  <SHEET>
   1 AA1 6 ASN A  62  GLY A  67  0                                        
   2 AA1 6 GLY A  53  GLU A  59 -1  N  ILE A  57   O  SER A  64           
   3 AA1 6 LYS A 243  MET A 252 -1  O  ASN A 249   N  VAL A  54           
   4 AA1 6 GLN A 228  GLU A 237 -1  N  GLY A 230   O  LEU A 250           
   5 AA1 6 SER A 213  TRP A 221 -1  N  LYS A 214   O  GLU A 237           
   6 AA1 6 LEU A 206  VAL A 210 -1  N  LYS A 208   O  ILE A 215           

>  <LINK>
       OG  SER A  81                 B7  JW3 A 301     1555   1555  1.49  
       C   PHE A  83                 N   KCX A  84     1555   1555  1.32  
       C   KCX A  84                 N   MET A  85     1555   1555  1.31  
       C   PRO A 113                 N   ABA A 114     1555   1555  1.34  
       C   ABA A 114                 N   TRP A 115     1555   1555  1.37  

>  <CISPEP>
   1 GLY A  170    PRO A  171          0         9.60                     
   2 THR A  226    PRO A  227          0        -4.45                     

>  <SITE>
   1 AC1 11 ALA A  80  SER A  81  TRP A 115  SER A 128                    
   2 AC1 11 VAL A 130  LEU A 168  GLY A 220  TRP A 221                    
   3 AC1 11 MET A 223  SO4 A 302  HOH A 412                               
   1 AC2  4 TYR A 112  MET A 223  JW3 A 301  MEE A 304                    
   1 AC3  2 GLY A 141  GLU A 143                                          
   1 AC4  3 ABA A 114  LEU A 127  SO4 A 302                               
   1 AC5  1 ASN A 181                                                     

>  <ORIGX1>
      1.000000  0.000000  0.000000        0.00000                         

>  <ORIGX2>
      0.000000  1.000000  0.000000        0.00000                         

>  <ORIGX3>
      0.000000  0.000000  1.000000        0.00000                         

>  <SCALE1>
      0.009701  0.000000  0.000000        0.00000                         

>  <SCALE2>
      0.000000  0.009701  0.000000        0.00000                         

>  <SCALE3>
      0.000000  0.000000  0.011569        0.00000                         

>  <MASTER>
      370    0    7   12    6    0    7    6 2035    1   59   19          

$$$$
