start_structures/Ligand_Substrate/Ligand_Complex_Stripped/JW8_5TG5.pdb
 OpenBabel08222315213D

 22 23  0  0  1  0  0  0  0  0999 V2000
   -1.7950   27.2140  -14.5800 N   0  0  0  0  0  0  0  0  0  0  0  0
   -1.3750   26.6950  -13.2760 C   0  0  2  0  0  0  0  0  0  0  0  0
   -2.4000   25.7850  -12.5650 C   0  0  0  0  0  0  0  0  0  0  0  0
   -2.0700   25.1830  -11.5260 O   0  0  0  0  0  0  0  0  0  0  0  0
   -0.9090   27.8560  -12.3710 C   0  0  0  0  0  0  0  0  0  0  0  0
    0.1720   28.6530  -12.9520 O   0  0  0  0  0  0  0  0  0  0  0  0
    3.5230   32.0280  -15.1230 C   0  0  0  0  0  0  0  0  0  0  0  0
    3.1480   32.2730  -13.7890 C   0  0  0  0  0  0  0  0  0  0  0  0
    2.0320   31.6320  -13.2120 C   0  0  0  0  0  0  0  0  0  0  0  0
    1.2470   30.7180  -13.9360 C   0  0  0  0  0  0  0  0  0  0  0  0
    1.5900   30.5110  -15.2850 C   0  0  0  0  0  0  0  0  0  0  0  0
    2.7150   31.1420  -15.8610 C   0  0  0  0  0  0  0  0  0  0  0  0
   -0.0300   30.0950  -13.3020 B   0  0  0  0  0  0  0  0  0  0  0  0
   -0.4460   30.7150  -11.9920 O   0  0  0  0  0  0  0  0  0  0  0  0
   -1.1650   30.0200  -14.2950 O   0  0  0  0  0  0  0  0  0  0  0  0
    4.8150   32.7570  -15.8210 S   0  0  0  0  0  0  0  0  0  0  0  0
    6.0340   31.8620  -16.1340 N   0  0  0  0  0  0  0  0  0  0  0  0
    6.2050   30.8240  -17.1390 C   0  0  0  0  0  0  0  0  0  0  0  0
    7.6690   30.8390  -16.6850 C   0  0  0  0  0  0  0  0  0  0  0  0
    7.3830   31.8720  -15.5880 C   0  0  0  0  0  0  0  0  0  0  0  0
    4.3820   33.2570  -17.0970 O   0  0  0  0  0  0  0  0  0  0  0  0
    5.2180   33.8750  -15.0130 O   0  0  0  0  0  0  0  0  0  0  0  0
  2  1  1  6  0  0  0
  2  3  1  0  0  0  0
  2  5  1  0  0  0  0
  3  4  2  0  0  0  0
  6 13  1  0  0  0  0
  6  5  1  0  0  0  0
  7  8  2  0  0  0  0
  7 12  1  0  0  0  0
  7 16  1  0  0  0  0
  8  9  1  0  0  0  0
  9 10  2  0  0  0  0
 10 11  1  0  0  0  0
 10 13  1  0  0  0  0
 11 12  2  0  0  0  0
 13 14  1  0  0  0  0
 13 15  1  0  0  0  0
 16 17  1  0  0  0  0
 16 21  2  0  0  0  0
 16 22  2  0  0  0  0
 17 18  1  0  0  0  0
 17 20  1  0  0  0  0
 18 19  1  0  0  0  0
 19 20  1  0  0  0  0
M  END
>  <HEADER>
    HYDROLASE/HYDROLASE INHIBITOR           27-SEP-16   5TG5              

>  <TITLE>
    OXA-24/40 IN COMPLEX WITH BORONIC ACID BA8                            

>  <COMPND>
    MOL_ID: 1;                                                            
   2 MOLECULE: BETA-LACTAMASE;                                            
   3 CHAIN: A;                                                            
   4 SYNONYM: BETA-LACTAMASE OXA-33,BETALACTAMASE OXA24,CARBAPENEM-       
   5 HYDROLYZING BETA-LACTAMASE OXA-40,CARBAPENEM-HYDROLYZING             
   6 OXACILLINASE,CARBAPENEM-HYDROLYZING OXACILLINASE OXA-40,CARBAPENEMASE
   7 OXA-24,CLASS D BETA-LACTAMASE OXA-40,OXA24 B-LACTAMASE,OXA40;        
   8 EC: 3.5.2.6;                                                         
   9 ENGINEERED: YES                                                      

>  <SOURCE>
    MOL_ID: 1;                                                            
   2 ORGANISM_SCIENTIFIC: ACINETOBACTER BAUMANNII;                        
   3 ORGANISM_TAXID: 470;                                                 
   4 GENE: BLAOXA-33, BLA-OXA-40, BLAOXA-24, BLAOXA-40, OXA-24, OXA40;    
   5 EXPRESSION_SYSTEM: ESCHERICHIA COLI BL21(DE3);                       
   6 EXPRESSION_SYSTEM_TAXID: 562;                                        
   7 EXPRESSION_SYSTEM_PLASMID: PET24A                                    

>  <KEYWDS>
    INHIBITOR, COMPLEX, LACTAMASE, OXA, HYDROLASE-HYDROLASE INHIBITOR     
   2 COMPLEX                                                              

>  <EXPDTA>
    X-RAY DIFFRACTION                                                     

>  <AUTHOR>
    R.A.POWERS,J.P.WERNER,J.M.MITCHELL                                    

>  <REVDAT>
   4   11-DEC-19 5TG5    1       REMARK                                   
   3   20-SEP-17 5TG5    1       REMARK                                   
   2   08-MAR-17 5TG5    1       JRNL                                     
   1   11-JAN-17 5TG5    0                                                

>  <JRNL>
      AUTH   J.P.WERNER,J.M.MITCHELL,M.A.TARACILA,R.A.BONOMO,R.A.POWERS   
      TITL   EXPLORING THE POTENTIAL OF BORONIC ACIDS AS INHIBITORS OF    
      TITL 2 OXA-24/40 BETA-LACTAMASE.                                    
      REF    PROTEIN SCI.                  V.  26   515 2017              
      REFN                   ESSN 1469-896X                               
      PMID   27997706                                                     
      DOI    10.1002/PRO.3100                                             

>  <REMARK>
   2                                                                      
   2 RESOLUTION.    1.75 ANGSTROMS.                                       
   3                                                                      
   3 REFINEMENT.                                                          
   3   PROGRAM     : REFMAC 5.8.0155                                      
   3   AUTHORS     : MURSHUDOV,SKUBAK,LEBEDEV,PANNU,STEINER,              
   3               : NICHOLLS,WINN,LONG,VAGIN                             
   3                                                                      
   3    REFINEMENT TARGET : NULL                                          
   3                                                                      
   3  DATA USED IN REFINEMENT.                                            
   3   RESOLUTION RANGE HIGH (ANGSTROMS) : 1.75                           
   3   RESOLUTION RANGE LOW  (ANGSTROMS) : 72.81                          
   3   DATA CUTOFF            (SIGMA(F)) : NULL                           
   3   COMPLETENESS FOR RANGE        (%) : 94.9                           
   3   NUMBER OF REFLECTIONS             : 42819                          
   3                                                                      
   3  FIT TO DATA USED IN REFINEMENT.                                     
   3   CROSS-VALIDATION METHOD          : THROUGHOUT                      
   3   FREE R VALUE TEST SET SELECTION  : RANDOM                          
   3   R VALUE     (WORKING + TEST SET) : 0.179                           
   3   R VALUE            (WORKING SET) : 0.178                           
   3   FREE R VALUE                     : 0.207                           
   3   FREE R VALUE TEST SET SIZE   (%) : 5.100                           
   3   FREE R VALUE TEST SET COUNT      : 2308                            
   3                                                                      
   3  FIT IN THE HIGHEST RESOLUTION BIN.                                  
   3   TOTAL NUMBER OF BINS USED           : 20                           
   3   BIN RESOLUTION RANGE HIGH       (A) : 1.75                         
   3   BIN RESOLUTION RANGE LOW        (A) : 1.80                         
   3   REFLECTION IN BIN     (WORKING SET) : 3250                         
   3   BIN COMPLETENESS (WORKING+TEST) (%) : 99.25                        
   3   BIN R VALUE           (WORKING SET) : 0.3240                       
   3   BIN FREE R VALUE SET COUNT          : 170                          
   3   BIN FREE R VALUE                    : 0.3030                       
   3                                                                      
   3  NUMBER OF NON-HYDROGEN ATOMS USED IN REFINEMENT.                    
   3   PROTEIN ATOMS            : 1925                                    
   3   NUCLEIC ACID ATOMS       : 0                                       
   3   HETEROGEN ATOMS          : 51                                      
   3   SOLVENT ATOMS            : 172                                     
   3                                                                      
   3  B VALUES.                                                           
   3   FROM WILSON PLOT           (A**2) : NULL                           
   3   MEAN B VALUE      (OVERALL, A**2) : 32.97                          
   3   OVERALL ANISOTROPIC B VALUE.                                       
   3    B11 (A**2) : -1.94000                                             
   3    B22 (A**2) : -1.94000                                             
   3    B33 (A**2) : 3.88000                                              
   3    B12 (A**2) : 0.00000                                              
   3    B13 (A**2) : 0.00000                                              
   3    B23 (A**2) : 0.00000                                              
   3                                                                      
   3  ESTIMATED OVERALL COORDINATE ERROR.                                 
   3   ESU BASED ON R VALUE                            (A): 0.082         
   3   ESU BASED ON FREE R VALUE                       (A): 0.085         
   3   ESU BASED ON MAXIMUM LIKELIHOOD                 (A): 0.081         
   3   ESU FOR B VALUES BASED ON MAXIMUM LIKELIHOOD (A**2): 2.922         
   3                                                                      
   3 CORRELATION COEFFICIENTS.                                            
   3   CORRELATION COEFFICIENT FO-FC      : 0.970                         
   3   CORRELATION COEFFICIENT FO-FC FREE : 0.961                         
   3                                                                      
   3  RMS DEVIATIONS FROM IDEAL VALUES        COUNT    RMS    WEIGHT      
   3   BOND LENGTHS REFINED ATOMS        (A):  2057 ; 0.009 ; 0.019       
   3   BOND LENGTHS OTHERS               (A):  1968 ; 0.001 ; 0.020       
   3   BOND ANGLES REFINED ATOMS   (DEGREES):  2788 ; 1.849 ; 1.976       
   3   BOND ANGLES OTHERS          (DEGREES):  4526 ; 0.965 ; 3.000       
   3   TORSION ANGLES, PERIOD 1    (DEGREES):   255 ; 8.118 ; 5.059       
   3   TORSION ANGLES, PERIOD 2    (DEGREES):    88 ;38.904 ;25.341       
   3   TORSION ANGLES, PERIOD 3    (DEGREES):   362 ;12.496 ;15.000       
   3   TORSION ANGLES, PERIOD 4    (DEGREES):     8 ;19.002 ;15.000       
   3   CHIRAL-CENTER RESTRAINTS       (A**3):   303 ; 0.154 ; 0.200       
   3   GENERAL PLANES REFINED ATOMS      (A):  2332 ; 0.005 ; 0.020       
   3   GENERAL PLANES OTHERS             (A):   468 ; 0.001 ; 0.020       
   3   NON-BONDED CONTACTS REFINED ATOMS (A):  NULL ;  NULL ;  NULL       
   3   NON-BONDED CONTACTS OTHERS        (A):  NULL ;  NULL ;  NULL       
   3   NON-BONDED TORSION REFINED ATOMS  (A):  NULL ;  NULL ;  NULL       
   3   NON-BONDED TORSION OTHERS         (A):  NULL ;  NULL ;  NULL       
   3   H-BOND (X...Y) REFINED ATOMS      (A):  NULL ;  NULL ;  NULL       
   3   H-BOND (X...Y) OTHERS             (A):  NULL ;  NULL ;  NULL       
   3   POTENTIAL METAL-ION REFINED ATOMS (A):  NULL ;  NULL ;  NULL       
   3   POTENTIAL METAL-ION OTHERS        (A):  NULL ;  NULL ;  NULL       
   3   SYMMETRY VDW REFINED ATOMS        (A):  NULL ;  NULL ;  NULL       
   3   SYMMETRY VDW OTHERS               (A):  NULL ;  NULL ;  NULL       
   3   SYMMETRY H-BOND REFINED ATOMS     (A):  NULL ;  NULL ;  NULL       
   3   SYMMETRY H-BOND OTHERS            (A):  NULL ;  NULL ;  NULL       
   3   SYMMETRY METAL-ION REFINED ATOMS  (A):  NULL ;  NULL ;  NULL       
   3   SYMMETRY METAL-ION OTHERS         (A):  NULL ;  NULL ;  NULL       
   3                                                                      
   3  ISOTROPIC THERMAL FACTOR RESTRAINTS.     COUNT   RMS    WEIGHT      
   3   MAIN-CHAIN BOND REFINED ATOMS  (A**2):   998 ; 2.822 ; 2.941       
   3   MAIN-CHAIN BOND OTHER ATOMS    (A**2):   997 ; 2.788 ; 2.938       
   3   MAIN-CHAIN ANGLE REFINED ATOMS (A**2):  1252 ; 4.100 ; 4.402       
   3   MAIN-CHAIN ANGLE OTHER ATOMS   (A**2):  1253 ; 4.108 ; 4.404       
   3   SIDE-CHAIN BOND REFINED ATOMS  (A**2):  1059 ; 4.275 ; 3.492       
   3   SIDE-CHAIN BOND OTHER ATOMS    (A**2):  1060 ; 4.273 ; 3.498       
   3   SIDE-CHAIN ANGLE REFINED ATOMS (A**2):  NULL ;  NULL ;  NULL       
   3   SIDE-CHAIN ANGLE OTHER ATOMS   (A**2):  1531 ; 6.692 ; 5.015       
   3   LONG RANGE B REFINED ATOMS     (A**2):  2319 ; 8.146 ;35.251       
   3   LONG RANGE B OTHER ATOMS       (A**2):  2277 ; 8.065 ;34.799       
   3                                                                      
   3 ANISOTROPIC THERMAL FACTOR RESTRAINTS.    COUNT   RMS   WEIGHT       
   3   RIGID-BOND RESTRAINTS          (A**2):  NULL ;  NULL ;  NULL       
   3   SPHERICITY; FREE ATOMS         (A**2):  NULL ;  NULL ;  NULL       
   3   SPHERICITY; BONDED ATOMS       (A**2):  NULL ;  NULL ;  NULL       
   3                                                                      
   3  NCS RESTRAINTS STATISTICS                                           
   3   NUMBER OF DIFFERENT NCS GROUPS : NULL                              
   3                                                                      
   3  TLS DETAILS                                                         
   3   NUMBER OF TLS GROUPS  : NULL                                       
   3                                                                      
   3  BULK SOLVENT MODELLING.                                             
   3   METHOD USED : NULL                                                 
   3   PARAMETERS FOR MASK CALCULATION                                    
   3   VDW PROBE RADIUS   : 1.10                                          
   3   ION PROBE RADIUS   : 0.90                                          
   3   SHRINKAGE RADIUS   : 0.90                                          
   3                                                                      
   3  OTHER REFINEMENT REMARKS: HYDROGENS HAVE BEEN ADDED IN THE RIDING   
   3  POSITIONS                                                           
   4                                                                      
   4 5TG5 COMPLIES WITH FORMAT V. 3.30, 13-JUL-11                         
 100                                                                      
 100 THIS ENTRY HAS BEEN PROCESSED BY RCSB ON 28-SEP-16.                  
 100 THE DEPOSITION ID IS D_1000223887.                                   
 200                                                                      
 200 EXPERIMENTAL DETAILS                                                 
 200  EXPERIMENT TYPE                : X-RAY DIFFRACTION                  
 200  DATE OF DATA COLLECTION        : 19-JUL-16                          
 200  TEMPERATURE           (KELVIN) : 100                                
 200  PH                             : 8.5                                
 200  NUMBER OF CRYSTALS USED        : 1                                  
 200                                                                      
 200  SYNCHROTRON              (Y/N) : Y                                  
 200  RADIATION SOURCE               : APS                                
 200  BEAMLINE                       : 21-ID-D                            
 200  X-RAY GENERATOR MODEL          : NULL                               
 200  MONOCHROMATIC OR LAUE    (M/L) : M                                  
 200  WAVELENGTH OR RANGE        (A) : 1.12713                            
 200  MONOCHROMATOR                  : NULL                               
 200  OPTICS                         : NULL                               
 200                                                                      
 200  DETECTOR TYPE                  : PIXEL                              
 200  DETECTOR MANUFACTURER          : DECTRIS EIGER X 9M                 
 200  INTENSITY-INTEGRATION SOFTWARE : XDS                                
 200  DATA SCALING SOFTWARE          : XSCALE                             
 200                                                                      
 200  NUMBER OF UNIQUE REFLECTIONS   : 45159                              
 200  RESOLUTION RANGE HIGH      (A) : 1.750                              
 200  RESOLUTION RANGE LOW       (A) : 102.970                            
 200  REJECTION CRITERIA  (SIGMA(I)) : NULL                               
 200                                                                      
 200 OVERALL.                                                             
 200  COMPLETENESS FOR RANGE     (%) : 95.0                               
 200  DATA REDUNDANCY                : 7.300                              
 200  R MERGE                    (I) : 0.08700                            
 200  R SYM                      (I) : NULL                               
 200  <I/SIGMA(I)> FOR THE DATA SET  : 12.0000                            
 200                                                                      
 200 IN THE HIGHEST RESOLUTION SHELL.                                     
 200  HIGHEST RESOLUTION SHELL, RANGE HIGH (A) : NULL                     
 200  HIGHEST RESOLUTION SHELL, RANGE LOW  (A) : NULL                     
 200  COMPLETENESS FOR SHELL     (%) : NULL                               
 200  DATA REDUNDANCY IN SHELL       : NULL                               
 200  R MERGE FOR SHELL          (I) : NULL                               
 200  R SYM FOR SHELL            (I) : NULL                               
 200  <I/SIGMA(I)> FOR SHELL         : NULL                               
 200                                                                      
 200 DIFFRACTION PROTOCOL: SINGLE WAVELENGTH                              
 200 METHOD USED TO DETERMINE THE STRUCTURE: MOLECULAR REPLACEMENT        
 200 SOFTWARE USED: PHASER                                                
 200 STARTING MODEL: 3PAE                                                 
 200                                                                      
 200 REMARK: NULL                                                         
 280                                                                      
 280 CRYSTAL                                                              
 280 SOLVENT CONTENT, VS   (%): 70.39                                     
 280 MATTHEWS COEFFICIENT, VM (ANGSTROMS**3/DA): 4.15                     
 280                                                                      
 280 CRYSTALLIZATION CONDITIONS: 100 MM TRIS-HCL, PH 8.5, 2.0 M           
 280  AMMONIUM SULFATE, VAPOR DIFFUSION, HANGING DROP, TEMPERATURE        
 280  298.0K                                                              
 290                                                                      
 290 CRYSTALLOGRAPHIC SYMMETRY                                            
 290 SYMMETRY OPERATORS FOR SPACE GROUP: P 41 21 2                        
 290                                                                      
 290      SYMOP   SYMMETRY                                                
 290     NNNMMM   OPERATOR                                                
 290       1555   X,Y,Z                                                   
 290       2555   -X,-Y,Z+1/2                                             
 290       3555   -Y+1/2,X+1/2,Z+1/4                                      
 290       4555   Y+1/2,-X+1/2,Z+3/4                                      
 290       5555   -X+1/2,Y+1/2,-Z+1/4                                     
 290       6555   X+1/2,-Y+1/2,-Z+3/4                                     
 290       7555   Y,X,-Z                                                  
 290       8555   -Y,-X,-Z+1/2                                            
 290                                                                      
 290     WHERE NNN -> OPERATOR NUMBER                                     
 290           MMM -> TRANSLATION VECTOR                                  
 290                                                                      
 290 CRYSTALLOGRAPHIC SYMMETRY TRANSFORMATIONS                            
 290 THE FOLLOWING TRANSFORMATIONS OPERATE ON THE ATOM/HETATM             
 290 RECORDS IN THIS ENTRY TO PRODUCE CRYSTALLOGRAPHICALLY                
 290 RELATED MOLECULES.                                                   
 290   SMTRY1   1  1.000000  0.000000  0.000000        0.00000            
 290   SMTRY2   1  0.000000  1.000000  0.000000        0.00000            
 290   SMTRY3   1  0.000000  0.000000  1.000000        0.00000            
 290   SMTRY1   2 -1.000000  0.000000  0.000000        0.00000            
 290   SMTRY2   2  0.000000 -1.000000  0.000000        0.00000            
 290   SMTRY3   2  0.000000  0.000000  1.000000       43.36500            
 290   SMTRY1   3  0.000000 -1.000000  0.000000       51.48700            
 290   SMTRY2   3  1.000000  0.000000  0.000000       51.48700            
 290   SMTRY3   3  0.000000  0.000000  1.000000       21.68250            
 290   SMTRY1   4  0.000000  1.000000  0.000000       51.48700            
 290   SMTRY2   4 -1.000000  0.000000  0.000000       51.48700            
 290   SMTRY3   4  0.000000  0.000000  1.000000       65.04750            
 290   SMTRY1   5 -1.000000  0.000000  0.000000       51.48700            
 290   SMTRY2   5  0.000000  1.000000  0.000000       51.48700            
 290   SMTRY3   5  0.000000  0.000000 -1.000000       21.68250            
 290   SMTRY1   6  1.000000  0.000000  0.000000       51.48700            
 290   SMTRY2   6  0.000000 -1.000000  0.000000       51.48700            
 290   SMTRY3   6  0.000000  0.000000 -1.000000       65.04750            
 290   SMTRY1   7  0.000000  1.000000  0.000000        0.00000            
 290   SMTRY2   7  1.000000  0.000000  0.000000        0.00000            
 290   SMTRY3   7  0.000000  0.000000 -1.000000        0.00000            
 290   SMTRY1   8  0.000000 -1.000000  0.000000        0.00000            
 290   SMTRY2   8 -1.000000  0.000000  0.000000        0.00000            
 290   SMTRY3   8  0.000000  0.000000 -1.000000       43.36500            
 290                                                                      
 290 REMARK: NULL                                                         
 300                                                                      
 300 BIOMOLECULE: 1                                                       
 300 SEE REMARK 350 FOR THE AUTHOR PROVIDED AND/OR PROGRAM                
 300 GENERATED ASSEMBLY INFORMATION FOR THE STRUCTURE IN                  
 300 THIS ENTRY. THE REMARK MAY ALSO PROVIDE INFORMATION ON               
 300 BURIED SURFACE AREA.                                                 
 350                                                                      
 350 COORDINATES FOR A COMPLETE MULTIMER REPRESENTING THE KNOWN           
 350 BIOLOGICALLY SIGNIFICANT OLIGOMERIZATION STATE OF THE                
 350 MOLECULE CAN BE GENERATED BY APPLYING BIOMT TRANSFORMATIONS          
 350 GIVEN BELOW.  BOTH NON-CRYSTALLOGRAPHIC AND                          
 350 CRYSTALLOGRAPHIC OPERATIONS ARE GIVEN.                               
 350                                                                      
 350 BIOMOLECULE: 1                                                       
 350 AUTHOR DETERMINED BIOLOGICAL UNIT: MONOMERIC                         
 350 SOFTWARE DETERMINED QUATERNARY STRUCTURE: MONOMERIC                  
 350 SOFTWARE USED: PISA                                                  
 350 APPLY THE FOLLOWING TO CHAINS: A                                     
 350   BIOMT1   1  1.000000  0.000000  0.000000        0.00000            
 350   BIOMT2   1  0.000000  1.000000  0.000000        0.00000            
 350   BIOMT3   1  0.000000  0.000000  1.000000        0.00000            
 470                                                                      
 470 MISSING ATOM                                                         
 470 THE FOLLOWING RESIDUES HAVE MISSING ATOMS (M=MODEL NUMBER;           
 470 RES=RESIDUE NAME; C=CHAIN IDENTIFIER; SSEQ=SEQUENCE NUMBER;          
 470 I=INSERTION CODE):                                                   
 470   M RES CSSEQI  ATOMS                                                
 470     LYS A 109    CG   CD   CE   NZ                                   
 470     GLU A 196    CG   CD   OE1  OE2                                  
 470     LYS A 203    CG   CD   CE   NZ                                   
 470     LYS A 242    CG   CD   CE   NZ                                   
 470     GLU A 254    CG   CD   OE1  OE2                                  
 500                                                                      
 500 GEOMETRY AND STEREOCHEMISTRY                                         
 500 SUBTOPIC: CLOSE CONTACTS                                             
 500                                                                      
 500 THE FOLLOWING ATOMS THAT ARE RELATED BY CRYSTALLOGRAPHIC             
 500 SYMMETRY ARE IN CLOSE CONTACT.  AN ATOM LOCATED WITHIN 0.15          
 500 ANGSTROMS OF A SYMMETRY RELATED ATOM IS ASSUMED TO BE ON A           
 500 SPECIAL POSITION AND IS, THEREFORE, LISTED IN REMARK 375             
 500 INSTEAD OF REMARK 500.  ATOMS WITH NON-BLANK ALTERNATE               
 500 LOCATION INDICATORS ARE NOT INCLUDED IN THE CALCULATIONS.            
 500                                                                      
 500 DISTANCE CUTOFF:                                                     
 500 2.2 ANGSTROMS FOR CONTACTS NOT INVOLVING HYDROGEN ATOMS              
 500 1.6 ANGSTROMS FOR CONTACTS INVOLVING HYDROGEN ATOMS                  
 500                                                                      
 500  ATM1  RES C  SSEQI   ATM2  RES C  SSEQI  SSYMOP   DISTANCE          
 500   O    HOH A   566     O    HOH A   566     8554     1.36            
 500   O    HOH A   524     O    HOH A   524     8554     1.77            
 500                                                                      
 500 REMARK: NULL                                                         
 500                                                                      
 500 GEOMETRY AND STEREOCHEMISTRY                                         
 500 SUBTOPIC: TORSION ANGLES                                             
 500                                                                      
 500 TORSION ANGLES OUTSIDE THE EXPECTED RAMACHANDRAN REGIONS:            
 500 (M=MODEL NUMBER; RES=RESIDUE NAME; C=CHAIN IDENTIFIER;               
 500 SSEQ=SEQUENCE NUMBER; I=INSERTION CODE).                             
 500                                                                      
 500 STANDARD TABLE:                                                      
 500 FORMAT:(10X,I3,1X,A3,1X,A1,I4,A1,4X,F7.2,3X,F7.2)                    
 500                                                                      
 500 EXPECTED VALUES: GJ KLEYWEGT AND TA JONES (1996). PHI/PSI-           
 500 CHOLOGY: RAMACHANDRAN REVISITED. STRUCTURE 4, 1395 - 1400            
 500                                                                      
 500  M RES CSSEQI        PSI       PHI                                   
 500    ALA A  80     -142.05     50.54                                   
 500    ASN A 165       10.91   -145.62                                   
 500                                                                      
 500 REMARK: NULL                                                         
 800                                                                      
 800 SITE                                                                 
 800 SITE_IDENTIFIER: AC1                                                 
 800 EVIDENCE_CODE: SOFTWARE                                              
 800 SITE_DESCRIPTION: binding site for residue JW8 A 301                 
 800                                                                      
 800 SITE_IDENTIFIER: AC2                                                 
 800 EVIDENCE_CODE: SOFTWARE                                              
 800 SITE_DESCRIPTION: binding site for residue JW8 A 302                 
 800                                                                      
 800 SITE_IDENTIFIER: AC3                                                 
 800 EVIDENCE_CODE: SOFTWARE                                              
 800 SITE_DESCRIPTION: binding site for residue SO4 A 303                 
 800                                                                      
 800 SITE_IDENTIFIER: AC4                                                 
 800 EVIDENCE_CODE: SOFTWARE                                              
 800 SITE_DESCRIPTION: binding site for residue BCT A 304                 
 800                                                                      
 800 SITE_IDENTIFIER: AC5                                                 
 800 EVIDENCE_CODE: SOFTWARE                                              
 800 SITE_DESCRIPTION: binding site for residue BCT A 305                 
 800                                                                      
 800 SITE_IDENTIFIER: AC6                                                 
 800 EVIDENCE_CODE: SOFTWARE                                              
 800 SITE_DESCRIPTION: binding site for residue BCT A 306                 
 800                                                                      
 800 SITE_IDENTIFIER: AC7                                                 
 800 EVIDENCE_CODE: SOFTWARE                                              
 800 SITE_DESCRIPTION: binding site for residue MEE A 307                 
 900                                                                      
 900 RELATED ENTRIES                                                      
 900 RELATED ID: 5TG4   RELATED DB: PDB                                   
 900 RELATED ID: 5TG6   RELATED DB: PDB                                   
 900 RELATED ID: 5TG7   RELATED DB: PDB                                   

>  <DBREF>
 5TG5 A   32   275  UNP    Q8RLA6   Q8RLA6_ACIBA    32    275             

>  <SEQADV>
 5TG5 MET A   31  UNP  Q8RLA6              INITIATING METHIONINE          

>  <SEQRES>
   1 A  245  MET HIS ILE SER SER GLN GLN HIS GLU LYS ALA ILE LYS          
   2 A  245  SER TYR PHE ASP GLU ALA GLN THR GLN GLY VAL ILE ILE          
   3 A  245  ILE LYS GLU GLY LYS ASN LEU SER THR TYR GLY ASN ALA          
   4 A  245  LEU ALA ARG ALA ASN LYS GLU TYR VAL PRO ALA SER THR          
   5 A  245  PHE KCX MET LEU ASN ALA LEU ILE GLY LEU GLU ASN HIS          
   6 A  245  LYS ALA THR THR ASN GLU ILE PHE LYS TRP ASP GLY LYS          
   7 A  245  LYS ARG THR TYR PRO ABA TRP GLU LYS ASP MET THR LEU          
   8 A  245  GLY GLU ALA MET ALA LEU SER ALA VAL PRO VAL TYR GLN          
   9 A  245  GLU LEU ALA ARG ARG THR GLY LEU GLU LEU MET GLN LYS          
  10 A  245  GLU VAL LYS ARG VAL ASN PHE GLY ASN THR ASN ILE GLY          
  11 A  245  THR GLN VAL ASP ASN PHE TRP LEU VAL GLY PRO LEU LYS          
  12 A  245  ILE THR PRO VAL GLN GLU VAL ASN PHE ALA ASP ASP LEU          
  13 A  245  ALA HIS ASN ARG LEU PRO PHE LYS LEU GLU THR GLN GLU          
  14 A  245  GLU VAL LYS LYS MET LEU LEU ILE LYS GLU VAL ASN GLY          
  15 A  245  SER LYS ILE TYR ALA LYS SER GLY TRP GLY MET GLY VAL          
  16 A  245  THR PRO GLN VAL GLY TRP LEU THR GLY TRP VAL GLU GLN          
  17 A  245  ALA ASN GLY LYS LYS ILE PRO PHE SER LEU ASN LEU GLU          
  18 A  245  MET LYS GLU GLY MET SER GLY SER ILE ARG ASN GLU ILE          
  19 A  245  THR TYR LYS SER LEU GLU ASN LEU GLY ILE ILE                  

>  <MODRES>
 5TG5 KCX A   84  LYS  MODIFIED RESIDUE                                   
 5TG5 ABA A  114  MET  MODIFIED RESIDUE                                   

>  <HET>
 KCX  A  84      12                                                       
 ABA  A 114       6                                                       
 JW8  A 301      16                                                       
 JW8  A 302      16                                                       
 SO4  A 303       5                                                       
 BCT  A 304       4                                                       
 BCT  A 305       4                                                       
 BCT  A 306       4                                                       
 MEE  A 307       2                                                       

>  <HETNAM>
     KCX LYSINE NZ-CARBOXYLIC ACID                                        
     ABA ALPHA-AMINOBUTYRIC ACID                                          
     JW8 {4-[(AZETIDIN-1-YL)SULFONYL]PHENYL}BORONIC ACID                  
     SO4 SULFATE ION                                                      
     BCT BICARBONATE ION                                                  
     MEE METHANETHIOL                                                     

>  <FORMUL>
   1  KCX    C7 H14 N2 O4                                                 
   1  ABA    C4 H9 N O2                                                   
   2  JW8    2(C9 H12 B N O4 S)                                           
   4  SO4    O4 S 2-                                                      
   5  BCT    3(C H O3 1-)                                                 
   8  MEE    C H4 S                                                       
   9  HOH   *172(H2 O)                                                    

>  <HELIX>
   1 AA1 SER A   34  ALA A   49  1                                  16    
   2 AA2 ALA A   69  LYS A   75  5                                   7    
   3 AA3 PRO A   79  THR A   82  5                                   4    
   4 AA4 PHE A   83  ASN A   94  1                                  12    
   5 AA5 TYR A  112  GLU A  116  5                                   5    
   6 AA6 THR A  120  SER A  128  1                                   9    
   7 AA7 ALA A  129  GLY A  141  1                                  13    
   8 AA8 GLY A  141  ASN A  153  1                                  13    
   9 AA9 THR A  175  HIS A  188  1                                  14    
  10 AB1 LYS A  194  MET A  204  1                                  11    
  11 AB2 SER A  259  LEU A  272  1                                  14    

>  <SHEET>
   1 AA1 6 ASN A  62  GLY A  67  0                                        
   2 AA1 6 GLY A  53  GLU A  59 -1  N  ILE A  57   O  SER A  64           
   3 AA1 6 LYS A 243  MET A 252 -1  O  ASN A 249   N  VAL A  54           
   4 AA1 6 GLN A 228  GLU A 237 -1  N  GLY A 230   O  LEU A 250           
   5 AA1 6 SER A 213  TRP A 221 -1  N  LYS A 214   O  GLU A 237           
   6 AA1 6 LEU A 206  VAL A 210 -1  N  LYS A 208   O  ILE A 215           

>  <LINK>
       OG  SER A  81                 B7  JW8 A 301     1555   1555  1.50  
       C   PHE A  83                 N   KCX A  84     1555   1555  1.33  
       C   KCX A  84                 N   MET A  85     1555   1555  1.33  
       C   PRO A 113                 N   ABA A 114     1555   1555  1.34  
       C   ABA A 114                 N   TRP A 115     1555   1555  1.35  

>  <CISPEP>
   1 GLY A  170    PRO A  171          0         6.53                     
   2 THR A  226    PRO A  227          0        -8.30                     

>  <SITE>
   1 AC1 12 ALA A  80  SER A  81  TYR A 112  TRP A 115                    
   2 AC1 12 SER A 128  VAL A 130  LEU A 168  TRP A 221                    
   3 AC1 12 MET A 223  JW8 A 302  BCT A 304  HOH A 416                    
   1 AC2 12 TYR A 112  LEU A 127  SER A 219  TRP A 221                    
   2 AC2 12 MET A 223  SER A 257  GLY A 258  ARG A 261                    
   3 AC2 12 JW8 A 301  HOH A 416  HOH A 444  HOH A 493                    
   1 AC3  5 GLY A 141  LEU A 142  GLU A 143  HOH A 406                    
   2 AC3  5 HOH A 479                                                     
   1 AC4  4 ARG A 110  THR A 111  TRP A 115  JW8 A 301                    
   1 AC5  2 LEU A 195  HOH A 405                                          
   1 AC6  1 ARG A 190                                                     
   1 AC7  1 ABA A 114                                                     

>  <ORIGX1>
      1.000000  0.000000  0.000000        0.00000                         

>  <ORIGX2>
      0.000000  1.000000  0.000000        0.00000                         

>  <ORIGX3>
      0.000000  0.000000  1.000000        0.00000                         

>  <SCALE1>
      0.009711  0.000000  0.000000        0.00000                         

>  <SCALE2>
      0.000000  0.009711  0.000000        0.00000                         

>  <SCALE3>
      0.000000  0.000000  0.011530        0.00000                         

>  <MASTER>
      337    0    9   11    6    0   12    6 2148    1   74   19          

$$$$
