start_structures/Ligand_Substrate/Ligand_Complex_Stripped/KCP_1KVL.pdb
 OpenBabel08222315203D

 52 64  0  0  1  0  0  0  0  0999 V2000
   33.4700    7.5570   -4.0750 N   0  0  0  0  0  0  0  0  0  0  0  0
   34.7090    8.0450   -3.4830 C   0  0  2  0  0  0  0  0  0  0  0  0
   35.0670    9.4530   -3.9870 C   0  0  0  0  0  0  0  0  0  0  0  0
   35.7040   10.2130   -3.2690 O   0  0  0  0  0  0  0  0  0  0  0  0
   35.8640    7.0590   -3.7040 C   0  0  0  0  0  0  0  0  0  0  0  0
   36.2130    6.8880   -5.0460 O   0  0  0  0  0  0  0  0  0  0  0  0
   37.6980    6.2940   -0.3570 S   0  0  1  0  0  0  0  0  0  0  0  0
   37.5910    4.8530    0.2410 S   0  0  2  0  0  0  0  0  0  0  0  0
   39.3970    6.5400    0.4320 C   0  0  1  0  0  0  0  0  0  0  0  0
   39.1660    5.7760    0.7270 C   0  0  2  0  0  0  0  0  0  0  0  0
   40.5480    6.7130   -0.6330 C   0  0  0  0  0  0  0  0  0  0  0  0
   40.1210    6.1520   -0.4680 C   0  0  0  0  0  0  0  0  0  0  0  0
   41.8040    7.1200   -0.2120 C   0  0  0  0  0  0  0  0  0  0  0  0
   41.2660    6.8730   -0.1880 C   0  0  0  0  0  0  0  0  0  0  0  0
   40.3090    6.3130   -2.1410 C   0  0  0  0  0  0  0  0  0  0  0  0
   39.8700    5.5980   -1.9300 C   0  0  0  0  0  0  0  0  0  0  0  0
   41.3330    6.5090   -3.2630 C   0  0  1  0  0  0  0  0  0  0  0  0
   40.7680    5.9890   -3.1420 C   0  0  2  0  0  0  0  0  0  0  0  0
   40.9080    6.5920   -4.4370 O   0  0  0  0  0  0  0  0  0  0  0  0
   40.2190    6.4400   -4.1720 O   0  0  0  0  0  0  0  0  0  0  0  0
   42.5590    6.6120   -2.9850 O   0  0  0  0  0  0  0  0  0  0  0  0
   42.0180    5.8670   -3.0550 O   0  0  0  0  0  0  0  0  0  0  0  0
   39.1260    5.6520   -2.4930 N   0  0  0  0  0  0  0  0  0  0  0  0
   38.8460    4.6410   -2.1560 N   0  0  0  0  0  0  0  0  0  0  0  0
   38.2650    5.0110   -1.5170 C   0  0  1  0  0  0  0  0  0  0  0  0
   38.2310    3.7950   -1.0910 C   0  0  2  0  0  0  0  0  0  0  0  0
   37.2380    4.1380   -2.2570 C   0  0  2  0  0  0  0  0  0  0  0  0
   37.1260    2.7890   -1.6100 C   0  0  2  0  0  0  0  0  0  0  0  0
   37.8820    2.7240   -2.2810 C   0  0  2  0  0  0  0  0  0  0  0  0
   36.4650    3.1870   -2.9680 C   0  0  1  0  0  0  0  0  0  0  0  0
   39.0440    2.5600   -1.8830 O   0  0  0  0  0  0  0  0  0  0  0  0
   36.3840    4.3660   -3.3090 O   0  0  0  0  0  0  0  0  0  0  0  0
   37.2510    1.7590   -2.7160 O   0  0  0  0  0  0  0  0  0  0  0  0
   36.0050    2.3180   -3.7170 O   0  0  0  0  0  0  0  0  0  0  0  0
   35.8880    4.0360   -1.6780 N   0  0  2  0  0  0  0  0  0  0  0  0
   37.5390    1.3610   -1.5840 N   0  0  0  0  0  0  0  0  0  0  0  0
   34.8250    3.6880   -2.4460 C   0  0  1  0  0  0  0  0  0  0  0  0
   38.4150    0.7730   -2.4230 C   0  0  0  0  0  0  0  0  0  0  0  0
   34.9200    3.4420   -3.6820 O   0  0  0  0  0  0  0  0  0  0  0  0
   38.9970    1.3680   -3.3480 O   0  0  0  0  0  0  0  0  0  0  0  0
   33.4980    3.5640   -1.7430 C   0  0  0  0  0  0  0  0  0  0  0  0
   38.6530   -0.7000   -2.1740 C   0  0  0  0  0  0  0  0  0  0  0  0
   32.7430    4.7930   -1.4090 C   0  0  0  0  0  0  0  0  0  0  0  0
   40.0170   -1.2880   -2.3860 C   0  0  0  0  0  0  0  0  0  0  0  0
   31.4380    5.0180   -1.8130 C   0  0  0  0  0  0  0  0  0  0  0  0
   41.2070   -0.5640   -2.4620 C   0  0  0  0  0  0  0  0  0  0  0  0
   31.0560    6.2300   -1.1150 C   0  0  0  0  0  0  0  0  0  0  0  0
   42.2360   -1.5810   -2.6170 C   0  0  0  0  0  0  0  0  0  0  0  0
   31.9520    6.8190   -0.4200 C   0  0  0  0  0  0  0  0  0  0  0  0
   41.8550   -2.8050   -2.6750 C   0  0  0  0  0  0  0  0  0  0  0  0
   33.3830    5.9730   -0.4780 S   0  0  0  0  0  0  0  0  0  0  0  0
   40.1910   -2.8930   -2.5370 S   0  0  0  0  0  0  0  0  0  0  0  0
  2  1  1  6  0  0  0
  3  2  1  0  0  0  0
  3  4  2  0  0  0  0
  5  2  1  0  0  0  0
  6  5  1  0  0  0  0
  7  9  1  0  0  0  0
  7 25  1  0  0  0  0
  7  8  1  0  0  0  0
  8 10  1  0  0  0  0
  8 26  1  0  0  0  0
  9 11  1  0  0  0  0
  9 10  1  0  0  0  0
 10 12  1  0  0  0  0
 11 13  1  0  0  0  0
 11 15  2  0  0  0  0
 12 14  1  0  0  0  0
 12 16  2  0  0  0  0
 15 17  1  0  0  0  0
 15 23  1  0  0  0  0
 16 18  1  0  0  0  0
 16 24  1  0  0  0  0
 17 19  1  0  0  0  0
 17 21  1  0  0  0  0
 17 18  1  0  0  0  0
 18 20  1  0  0  0  0
 18 22  1  0  0  0  0
 19 20  1  0  0  0  0
 22 21  1  0  0  0  0
 23 25  1  0  0  0  0
 24 26  1  0  0  0  0
 24 25  1  0  0  0  0
 25 27  1  0  0  0  0
 26 28  1  0  0  0  0
 27 29  1  0  0  0  0
 27 35  1  0  0  0  0
 28 30  1  0  0  0  0
 28 36  1  0  0  0  0
 29 31  1  0  0  0  0
 29 33  1  0  0  0  0
 29 28  1  0  0  0  0
 30 32  1  0  0  0  0
 30 34  1  0  0  0  0
 30 35  1  0  0  0  0
 32 27  1  0  0  0  0
 33 36  1  0  0  0  0
 34 39  1  0  0  0  0
 35 37  1  0  0  0  0
 36 38  1  0  0  0  0
 37 39  1  0  0  0  0
 37 41  1  0  0  0  0
 38 40  2  0  0  0  0
 38 42  1  0  0  0  0
 41 43  1  0  0  0  0
 42 44  1  0  0  0  0
 43 45  2  0  0  0  0
 43 51  1  0  0  0  0
 44 46  2  0  0  0  0
 44 52  1  0  0  0  0
 45 47  1  0  0  0  0
 46 48  1  0  0  0  0
 47 49  2  0  0  0  0
 48 50  2  0  0  0  0
 49 51  1  0  0  0  0
 50 52  1  0  0  0  0
M  END
>  <HEADER>
    HYDROLASE                               27-JAN-02   1KVL              

>  <TITLE>
    X-RAY CRYSTAL STRUCTURE OF AMPC S64G MUTANT BETA-LACTAMASE IN COMPLEX 
   2 WITH SUBSTRATE AND PRODUCT FORMS OF CEPHALOTHIN                      

>  <COMPND>
    MOL_ID: 1;                                                            
   2 MOLECULE: BETA-LACTAMASE;                                            
   3 CHAIN: A, B;                                                         
   4 SYNONYM: CEPHALOSPORINASE;                                           
   5 EC: 3.5.2.6;                                                         
   6 ENGINEERED: YES;                                                     
   7 MUTATION: YES                                                        

>  <SOURCE>
    MOL_ID: 1;                                                            
   2 ORGANISM_SCIENTIFIC: ESCHERICHIA COLI;                               
   3 ORGANISM_TAXID: 562;                                                 
   4 GENE: K12;                                                           
   5 EXPRESSION_SYSTEM: ESCHERICHIA COLI;                                 
   6 EXPRESSION_SYSTEM_TAXID: 562;                                        
   7 EXPRESSION_SYSTEM_STRAIN: JM109;                                     
   8 EXPRESSION_SYSTEM_VECTOR_TYPE: PLASMID;                              
   9 EXPRESSION_SYSTEM_PLASMID: POGO295                                   

>  <KEYWDS>
    AMIDE HYDROLASE, BETA-LACTAMASE, CEPHALOTHIN, SUBSTRATE-ENZYME        
   2 COMPLEX, PRODUCT-ENZYME COMPLEX, HYDROLASE                           

>  <EXPDTA>
    X-RAY DIFFRACTION                                                     

>  <AUTHOR>
    B.M.BEADLE,I.TREHAN,P.J.FOCIA,B.K.SHOICHET                            

>  <REVDAT>
   5   16-AUG-23 1KVL    1       REMARK                                   
   4   27-OCT-21 1KVL    1       REMARK SEQADV LINK                       
   3   24-FEB-09 1KVL    1       VERSN                                    
   2   02-AUG-05 1KVL    1       DBREF  REMARK SEQADV                     
   1   13-MAR-02 1KVL    0                                                

>  <JRNL>
      AUTH   B.M.BEADLE,I.TREHAN,P.J.FOCIA,B.K.SHOICHET                   
      TITL   STRUCTURAL MILESTONES IN THE REACTION PATHWAY OF AN AMIDE    
      TITL 2 HYDROLASE: SUBSTRATE, ACYL, AND PRODUCT COMPLEXES OF         
      TITL 3 CEPHALOTHIN WITH AMPC BETA-LACTAMASE.                        
      REF    STRUCTURE                     V.  10   413 2002              
      REFN                   ISSN 0969-2126                               
      PMID   12005439                                                     
      DOI    10.1016/S0969-2126(02)00725-6                                

>  <REMARK>
   2                                                                      
   2 RESOLUTION.    1.53 ANGSTROMS.                                       
   3                                                                      
   3 REFINEMENT.                                                          
   3   PROGRAM     : CNS                                                  
   3   AUTHORS     : BRUNGER,ADAMS,CLORE,DELANO,GROS,GROSSE-              
   3               : KUNSTLEVE,JIANG,KUSZEWSKI,NILGES,PANNU,              
   3               : READ,RICE,SIMONSON,WARREN                            
   3                                                                      
   3  REFINEMENT TARGET : ENGH & HUBER                                    
   3                                                                      
   3  DATA USED IN REFINEMENT.                                            
   3   RESOLUTION RANGE HIGH (ANGSTROMS) : 1.53                           
   3   RESOLUTION RANGE LOW  (ANGSTROMS) : 20.00                          
   3   DATA CUTOFF            (SIGMA(F)) : 2.000                          
   3   DATA CUTOFF HIGH         (ABS(F)) : NULL                           
   3   DATA CUTOFF LOW          (ABS(F)) : NULL                           
   3   COMPLETENESS (WORKING+TEST)   (%) : NULL                           
   3   NUMBER OF REFLECTIONS             : 89700                          
   3                                                                      
   3  FIT TO DATA USED IN REFINEMENT.                                     
   3   CROSS-VALIDATION METHOD          : NULL                            
   3   FREE R VALUE TEST SET SELECTION  : RANDOM                          
   3   R VALUE            (WORKING SET) : 0.195                           
   3   FREE R VALUE                     : 0.220                           
   3   FREE R VALUE TEST SET SIZE   (%) : NULL                            
   3   FREE R VALUE TEST SET COUNT      : 2220                            
   3   ESTIMATED ERROR OF FREE R VALUE  : NULL                            
   3                                                                      
   3  FIT IN THE HIGHEST RESOLUTION BIN.                                  
   3   TOTAL NUMBER OF BINS USED           : NULL                         
   3   BIN RESOLUTION RANGE HIGH       (A) : 1.53                         
   3   BIN RESOLUTION RANGE LOW        (A) : 1.58                         
   3   BIN COMPLETENESS (WORKING+TEST) (%) : NULL                         
   3   REFLECTIONS IN BIN    (WORKING SET) : NULL                         
   3   BIN R VALUE           (WORKING SET) : 0.2130                       
   3   BIN FREE R VALUE                    : 0.2230                       
   3   BIN FREE R VALUE TEST SET SIZE  (%) : NULL                         
   3   BIN FREE R VALUE TEST SET COUNT     : 184                          
   3   ESTIMATED ERROR OF BIN FREE R VALUE : NULL                         
   3                                                                      
   3  NUMBER OF NON-HYDROGEN ATOMS USED IN REFINEMENT.                    
   3   PROTEIN ATOMS            : 5544                                    
   3   NUCLEIC ACID ATOMS       : 0                                       
   3   HETEROGEN ATOMS          : 82                                      
   3   SOLVENT ATOMS            : 488                                     
   3                                                                      
   3  B VALUES.                                                           
   3   FROM WILSON PLOT           (A**2) : NULL                           
   3   MEAN B VALUE      (OVERALL, A**2) : 54.17                          
   3   OVERALL ANISOTROPIC B VALUE.                                       
   3    B11 (A**2) : -3.57300                                             
   3    B22 (A**2) : 2.88400                                              
   3    B33 (A**2) : 0.68900                                              
   3    B12 (A**2) : 0.00000                                              
   3    B13 (A**2) : -4.64600                                             
   3    B23 (A**2) : 0.00000                                              
   3                                                                      
   3  ESTIMATED COORDINATE ERROR.                                         
   3   ESD FROM LUZZATI PLOT        (A) : 0.18                            
   3   ESD FROM SIGMAA              (A) : 0.09                            
   3   LOW RESOLUTION CUTOFF        (A) : 5.00                            
   3                                                                      
   3  CROSS-VALIDATED ESTIMATED COORDINATE ERROR.                         
   3   ESD FROM C-V LUZZATI PLOT    (A) : 0.21                            
   3   ESD FROM C-V SIGMAA          (A) : 0.12                            
   3                                                                      
   3  RMS DEVIATIONS FROM IDEAL VALUES.                                   
   3   BOND LENGTHS                 (A) : 0.014                           
   3   BOND ANGLES            (DEGREES) : 1.700                           
   3   DIHEDRAL ANGLES        (DEGREES) : NULL                            
   3   IMPROPER ANGLES        (DEGREES) : NULL                            
   3                                                                      
   3  ISOTROPIC THERMAL MODEL : NULL                                      
   3                                                                      
   3  ISOTROPIC THERMAL FACTOR RESTRAINTS.    RMS    SIGMA                
   3   MAIN-CHAIN BOND              (A**2) : 1.263 ; 1.500                
   3   MAIN-CHAIN ANGLE             (A**2) : 1.835 ; 2.000                
   3   SIDE-CHAIN BOND              (A**2) : 2.102 ; 2.000                
   3   SIDE-CHAIN ANGLE             (A**2) : 3.082 ; 2.500                
   3                                                                      
   3  BULK SOLVENT MODELING.                                              
   3   METHOD USED : NULL                                                 
   3   KSOL        : 0.38                                                 
   3   BSOL        : NULL                                                 
   3                                                                      
   3  NCS MODEL : NULL                                                    
   3                                                                      
   3  NCS RESTRAINTS.                         RMS   SIGMA/WEIGHT          
   3   GROUP  1  POSITIONAL            (A) : NULL  ; NULL                 
   3   GROUP  1  B-FACTOR           (A**2) : NULL  ; NULL                 
   3                                                                      
   3  PARAMETER FILE  1  : PROTEIN_REP.PARAM                              
   3  PARAMETER FILE  2  : CEPHALOTHIN.PARAM                              
   3  PARAMETER FILE  3  : WATER_REP.PARAM                                
   3  PARAMETER FILE  4  : ION.PARAM                                      
   3  PARAMETER FILE  5  : NULL                                           
   3  TOPOLOGY FILE  1   : PROTEIN.TOP                                    
   3  TOPOLOGY FILE  2   : CEPHALOTHIN.TOP                                
   3  TOPOLOGY FILE  3   : WATER.TOP                                      
   3  TOPOLOGY FILE  4   : ION.TOP                                        
   3  TOPOLOGY FILE  5   : NULL                                           
   3                                                                      
   3  OTHER REFINEMENT REMARKS: NULL                                      
   4                                                                      
   4 1KVL COMPLIES WITH FORMAT V. 3.30, 13-JUL-11                         
 100                                                                      
 100 THIS ENTRY HAS BEEN PROCESSED BY RCSB ON 05-FEB-02.                  
 100 THE DEPOSITION ID IS D_1000015386.                                   
 200                                                                      
 200 EXPERIMENTAL DETAILS                                                 
 200  EXPERIMENT TYPE                : X-RAY DIFFRACTION                  
 200  DATE OF DATA COLLECTION        : 11-AUG-00                          
 200  TEMPERATURE           (KELVIN) : 100                                
 200  PH                             : 8.7                                
 200  NUMBER OF CRYSTALS USED        : 1                                  
 200                                                                      
 200  SYNCHROTRON              (Y/N) : Y                                  
 200  RADIATION SOURCE               : APS                                
 200  BEAMLINE                       : 5ID-B                              
 200  X-RAY GENERATOR MODEL          : NULL                               
 200  MONOCHROMATIC OR LAUE    (M/L) : M                                  
 200  WAVELENGTH OR RANGE        (A) : 1.0                                
 200  MONOCHROMATOR                  : NULL                               
 200  OPTICS                         : NULL                               
 200                                                                      
 200  DETECTOR TYPE                  : CCD                                
 200  DETECTOR MANUFACTURER          : MARRESEARCH                        
 200  INTENSITY-INTEGRATION SOFTWARE : DENZO                              
 200  DATA SCALING SOFTWARE          : SCALEPACK                          
 200                                                                      
 200  NUMBER OF UNIQUE REFLECTIONS   : 108082                             
 200  RESOLUTION RANGE HIGH      (A) : 1.530                              
 200  RESOLUTION RANGE LOW       (A) : 20.000                             
 200  REJECTION CRITERIA  (SIGMA(I)) : -3.000                             
 200                                                                      
 200 OVERALL.                                                             
 200  COMPLETENESS FOR RANGE     (%) : 90.3                               
 200  DATA REDUNDANCY                : 3.600                              
 200  R MERGE                    (I) : 0.06600                            
 200  R SYM                      (I) : NULL                               
 200  <I/SIGMA(I)> FOR THE DATA SET  : 28.2000                            
 200                                                                      
 200 IN THE HIGHEST RESOLUTION SHELL.                                     
 200  HIGHEST RESOLUTION SHELL, RANGE HIGH (A) : 1.53                     
 200  HIGHEST RESOLUTION SHELL, RANGE LOW  (A) : 1.57                     
 200  COMPLETENESS FOR SHELL     (%) : 95.5                               
 200  DATA REDUNDANCY IN SHELL       : NULL                               
 200  R MERGE FOR SHELL          (I) : 0.40000                            
 200  R SYM FOR SHELL            (I) : NULL                               
 200  <I/SIGMA(I)> FOR SHELL         : 2.140                              
 200                                                                      
 200 DIFFRACTION PROTOCOL: SINGLE WAVELENGTH                              
 200 METHOD USED TO DETERMINE THE STRUCTURE: MOLECULAR REPLACEMENT        
 200 SOFTWARE USED: CNS                                                   
 200 STARTING MODEL: PDB ENTRY 1C3B                                       
 200                                                                      
 200 REMARK: NULL                                                         
 280                                                                      
 280 CRYSTAL                                                              
 280 SOLVENT CONTENT, VS   (%): 51.79                                     
 280 MATTHEWS COEFFICIENT, VM (ANGSTROMS**3/DA): 2.55                     
 280                                                                      
 280 CRYSTALLIZATION CONDITIONS: 1.7 M POTASSIUM PHOSPHATE; THE CRYSTAL   
 280  WAS THEN SOAKED IN SATURATED CEPHALOTHIN IN CRYSTALLIZING BUFFER    
 280  FOR 3 HOURS, PH 8.7, VAPOR DIFFUSION, HANGING DROP, TEMPERATURE     
 280  296K                                                                
 290                                                                      
 290 CRYSTALLOGRAPHIC SYMMETRY                                            
 290 SYMMETRY OPERATORS FOR SPACE GROUP: C 1 2 1                          
 290                                                                      
 290      SYMOP   SYMMETRY                                                
 290     NNNMMM   OPERATOR                                                
 290       1555   X,Y,Z                                                   
 290       2555   -X,Y,-Z                                                 
 290       3555   X+1/2,Y+1/2,Z                                           
 290       4555   -X+1/2,Y+1/2,-Z                                         
 290                                                                      
 290     WHERE NNN -> OPERATOR NUMBER                                     
 290           MMM -> TRANSLATION VECTOR                                  
 290                                                                      
 290 CRYSTALLOGRAPHIC SYMMETRY TRANSFORMATIONS                            
 290 THE FOLLOWING TRANSFORMATIONS OPERATE ON THE ATOM/HETATM             
 290 RECORDS IN THIS ENTRY TO PRODUCE CRYSTALLOGRAPHICALLY                
 290 RELATED MOLECULES.                                                   
 290   SMTRY1   1  1.000000  0.000000  0.000000        0.00000            
 290   SMTRY2   1  0.000000  1.000000  0.000000        0.00000            
 290   SMTRY3   1  0.000000  0.000000  1.000000        0.00000            
 290   SMTRY1   2 -1.000000  0.000000  0.000000        0.00000            
 290   SMTRY2   2  0.000000  1.000000  0.000000        0.00000            
 290   SMTRY3   2  0.000000  0.000000 -1.000000        0.00000            
 290   SMTRY1   3  1.000000  0.000000  0.000000       59.30950            
 290   SMTRY2   3  0.000000  1.000000  0.000000       38.57650            
 290   SMTRY3   3  0.000000  0.000000  1.000000        0.00000            
 290   SMTRY1   4 -1.000000  0.000000  0.000000       59.30950            
 290   SMTRY2   4  0.000000  1.000000  0.000000       38.57650            
 290   SMTRY3   4  0.000000  0.000000 -1.000000        0.00000            
 290                                                                      
 290 REMARK: NULL                                                         
 300                                                                      
 300 BIOMOLECULE: 1, 2                                                    
 300 SEE REMARK 350 FOR THE AUTHOR PROVIDED AND/OR PROGRAM                
 300 GENERATED ASSEMBLY INFORMATION FOR THE STRUCTURE IN                  
 300 THIS ENTRY. THE REMARK MAY ALSO PROVIDE INFORMATION ON               
 300 BURIED SURFACE AREA.                                                 
 350                                                                      
 350 COORDINATES FOR A COMPLETE MULTIMER REPRESENTING THE KNOWN           
 350 BIOLOGICALLY SIGNIFICANT OLIGOMERIZATION STATE OF THE                
 350 MOLECULE CAN BE GENERATED BY APPLYING BIOMT TRANSFORMATIONS          
 350 GIVEN BELOW.  BOTH NON-CRYSTALLOGRAPHIC AND                          
 350 CRYSTALLOGRAPHIC OPERATIONS ARE GIVEN.                               
 350                                                                      
 350 BIOMOLECULE: 1                                                       
 350 AUTHOR DETERMINED BIOLOGICAL UNIT: MONOMERIC                         
 350 APPLY THE FOLLOWING TO CHAINS: A                                     
 350   BIOMT1   1  1.000000  0.000000  0.000000        0.00000            
 350   BIOMT2   1  0.000000  1.000000  0.000000        0.00000            
 350   BIOMT3   1  0.000000  0.000000  1.000000        0.00000            
 350                                                                      
 350 BIOMOLECULE: 2                                                       
 350 AUTHOR DETERMINED BIOLOGICAL UNIT: MONOMERIC                         
 350 APPLY THE FOLLOWING TO CHAINS: B                                     
 350   BIOMT1   1  1.000000  0.000000  0.000000        0.00000            
 350   BIOMT2   1  0.000000  1.000000  0.000000        0.00000            
 350   BIOMT3   1  0.000000  0.000000  1.000000        0.00000            
 470                                                                      
 470 MISSING ATOM                                                         
 470 THE FOLLOWING RESIDUES HAVE MISSING ATOMS (M=MODEL NUMBER;           
 470 RES=RESIDUE NAME; C=CHAIN IDENTIFIER; SSEQ=SEQUENCE NUMBER;          
 470 I=INSERTION CODE):                                                   
 470   M RES CSSEQI  ATOMS                                                
 470     GLU A  21    CG   CD   OE1  OE2                                  
 470     LYS A  37    CG   CD   CE   NZ                                   
 470     LYS A  99    CG   CD   CE   NZ                                   
 470     ASP A 242    CG   OD1  OD2                                       
 470     LYS A 246    CG   CD   CE   NZ                                   
 470     ASN A 285    CG   OD1  ND2                                       
 470     SER A 287    OG                                                  
 470     ASN A 289    CG   OD1  ND2                                       
 470     LYS B  50    CG   CD   CE   NZ                                   
 470     ASP B 123    CG   OD1  OD2                                       
 470     LYS B 126    CG   CD   CE   NZ                                   
 470     GLU B 205    CG   CD   OE1  OE2                                  
 470     ASN B 244    CG   OD1  ND2                                       
 470     LYS B 299    CG   CD   CE   NZ                                   
 470     GLU B 331    CG   CD   OE1  OE2                                  
 500                                                                      
 500 GEOMETRY AND STEREOCHEMISTRY                                         
 500 SUBTOPIC: COVALENT BOND LENGTHS                                      
 500                                                                      
 500 THE STEREOCHEMICAL PARAMETERS OF THE FOLLOWING RESIDUES              
 500 HAVE VALUES WHICH DEVIATE FROM EXPECTED VALUES BY MORE               
 500 THAN 6*RMSD (M=MODEL NUMBER; RES=RESIDUE NAME; C=CHAIN               
 500 IDENTIFIER; SSEQ=SEQUENCE NUMBER; I=INSERTION CODE).                 
 500                                                                      
 500 STANDARD TABLE:                                                      
 500 FORMAT: (10X,I3,1X,2(A3,1X,A1,I4,A1,1X,A4,3X),1X,F6.3)               
 500                                                                      
 500 EXPECTED VALUES PROTEIN: ENGH AND HUBER, 1999                        
 500 EXPECTED VALUES NUCLEIC ACID: CLOWNEY ET AL 1996                     
 500                                                                      
 500  M RES CSSEQI ATM1   RES CSSEQI ATM2   DEVIATION                     
 500    LYS A 164   C     LYS A 164   O       0.139                       
 500    LYS A 164   C     PRO A 165   N       0.119                       
 500    LYS A 164   C     PRO A 165   N       0.218                       
 500    PRO A 165   CD    PRO A 165   N       0.086                       
 500                                                                      
 500 REMARK: NULL                                                         
 500                                                                      
 500 GEOMETRY AND STEREOCHEMISTRY                                         
 500 SUBTOPIC: COVALENT BOND ANGLES                                       
 500                                                                      
 500 THE STEREOCHEMICAL PARAMETERS OF THE FOLLOWING RESIDUES              
 500 HAVE VALUES WHICH DEVIATE FROM EXPECTED VALUES BY MORE               
 500 THAN 6*RMSD (M=MODEL NUMBER; RES=RESIDUE NAME; C=CHAIN               
 500 IDENTIFIER; SSEQ=SEQUENCE NUMBER; I=INSERTION CODE).                 
 500                                                                      
 500 STANDARD TABLE:                                                      
 500 FORMAT: (10X,I3,1X,A3,1X,A1,I4,A1,3(1X,A4,2X),12X,F5.1)              
 500                                                                      
 500 EXPECTED VALUES PROTEIN: ENGH AND HUBER, 1999                        
 500 EXPECTED VALUES NUCLEIC ACID: CLOWNEY ET AL 1996                     
 500                                                                      
 500  M RES CSSEQI ATM1   ATM2   ATM3                                     
 500    PRO A 165   CA  -  N   -  CD  ANGL. DEV. =  -9.2 DEGREES          
 500    PRO B  94   C   -  N   -  CD  ANGL. DEV. = -13.8 DEGREES          
 500                                                                      
 500 REMARK: NULL                                                         
 500                                                                      
 500 GEOMETRY AND STEREOCHEMISTRY                                         
 500 SUBTOPIC: TORSION ANGLES                                             
 500                                                                      
 500 TORSION ANGLES OUTSIDE THE EXPECTED RAMACHANDRAN REGIONS:            
 500 (M=MODEL NUMBER; RES=RESIDUE NAME; C=CHAIN IDENTIFIER;               
 500 SSEQ=SEQUENCE NUMBER; I=INSERTION CODE).                             
 500                                                                      
 500 STANDARD TABLE:                                                      
 500 FORMAT:(10X,I3,1X,A3,1X,A1,I4,A1,4X,F7.2,3X,F7.2)                    
 500                                                                      
 500 EXPECTED VALUES: GJ KLEYWEGT AND TA JONES (1996). PHI/PSI-           
 500 CHOLOGY: RAMACHANDRAN REVISITED. STRUCTURE 4, 1395 - 1400            
 500                                                                      
 500  M RES CSSEQI        PSI       PHI                                   
 500    TRP A  93       80.84   -152.45                                   
 500    VAL A 178      -55.86   -127.26                                   
 500    TYR A 221       16.76   -160.91                                   
 500    ASP A 288      104.50   -168.62                                   
 500    ALA A 307      120.21    -37.48                                   
 500    ASN A 341       44.66    -99.31                                   
 500    VAL B 178      -59.23   -128.51                                   
 500    TYR B 221       20.77   -159.13                                   
 500    ALA B 307      122.95    -37.57                                   
 500    ASN B 341       41.48    -95.84                                   
 500                                                                      
 500 REMARK: NULL                                                         
 500                                                                      
 500 GEOMETRY AND STEREOCHEMISTRY                                         
 500 SUBTOPIC: MAIN CHAIN PLANARITY                                       
 500                                                                      
 500 THE FOLLOWING RESIDUES HAVE A PSEUDO PLANARITY                       
 500 TORSION ANGLE, C(I) - CA(I) - N(I+1) - O(I), GREATER                 
 500 10.0 DEGREES. (M=MODEL NUMBER; RES=RESIDUE NAME;                     
 500 C=CHAIN IDENTIFIER; SSEQ=SEQUENCE NUMBER;                            
 500 I=INSERTION CODE).                                                   
 500                                                                      
 500  M RES CSSEQI        ANGLE                                           
 500    LYS A 164         16.25                                           
 500    LYS A 164        -10.55                                           
 500                                                                      
 500 REMARK: NULL                                                         
 800                                                                      
 800 SITE                                                                 
 800 SITE_IDENTIFIER: AC1                                                 
 800 EVIDENCE_CODE: SOFTWARE                                              
 800 SITE_DESCRIPTION: BINDING SITE FOR RESIDUE PO4 A 902                 
 800                                                                      
 800 SITE_IDENTIFIER: AC2                                                 
 800 EVIDENCE_CODE: SOFTWARE                                              
 800 SITE_DESCRIPTION: BINDING SITE FOR RESIDUE PO4 A 901                 
 800                                                                      
 800 SITE_IDENTIFIER: AC3                                                 
 800 EVIDENCE_CODE: SOFTWARE                                              
 800 SITE_DESCRIPTION: BINDING SITE FOR RESIDUE KCP A 380                 
 800                                                                      
 800 SITE_IDENTIFIER: AC4                                                 
 800 EVIDENCE_CODE: SOFTWARE                                              
 800 SITE_DESCRIPTION: BINDING SITE FOR RESIDUE CLS A 371                 
 800                                                                      
 800 SITE_IDENTIFIER: AC5                                                 
 800 EVIDENCE_CODE: SOFTWARE                                              
 800 SITE_DESCRIPTION: BINDING SITE FOR RESIDUE THN B 372                 
 900                                                                      
 900 RELATED ENTRIES                                                      
 900 RELATED ID: 1KVM   RELATED DB: PDB                                   
 900 AMPC WT BETA-LACTAMASE IN COMPLEX WITH COVALENTLY BOUND CEPHALOTHIN  
 900 RELATED ID: 1KE4   RELATED DB: PDB                                   
 900 AMPC BETA-LACTAMASE WT APO                                           
 900 RELATED ID: 2BLS   RELATED DB: PDB                                   
 900 AMPC BETA-LACTAMASE WT APO                                           

>  <DBREF>
 1KVL A    4   361  UNP    P00811   AMPC_ECOLI      20    377             
 1KVL B    4   361  UNP    P00811   AMPC_ECOLI      20    377             

>  <SEQADV>
 1KVL GLY A   64  UNP  P00811    SER    80 ENGINEERED MUTATION            
 1KVL GLY B   64  UNP  P00811    SER    80 ENGINEERED MUTATION            

>  <SEQRES>
   1 A  358  ALA PRO GLN GLN ILE ASN ASP ILE VAL HIS ARG THR ILE          
   2 A  358  THR PRO LEU ILE GLU GLN GLN LYS ILE PRO GLY MET ALA          
   3 A  358  VAL ALA VAL ILE TYR GLN GLY LYS PRO TYR TYR PHE THR          
   4 A  358  TRP GLY TYR ALA ASP ILE ALA LYS LYS GLN PRO VAL THR          
   5 A  358  GLN GLN THR LEU PHE GLU LEU GLY GLY VAL SER LYS THR          
   6 A  358  PHE THR GLY VAL LEU GLY GLY ASP ALA ILE ALA ARG GLY          
   7 A  358  GLU ILE LYS LEU SER ASP PRO THR THR LYS TYR TRP PRO          
   8 A  358  GLU LEU THR ALA LYS GLN TRP ASN GLY ILE THR LEU LEU          
   9 A  358  HIS LEU ALA THR TYR THR ALA GLY GLY LEU PRO LEU GLN          
  10 A  358  VAL PRO ASP GLU VAL LYS SER SER SER ASP LEU LEU ARG          
  11 A  358  PHE TYR GLN ASN TRP GLN PRO ALA TRP ALA PRO GLY THR          
  12 A  358  GLN ARG LEU TYR ALA ASN SER SER ILE GLY LEU PHE GLY          
  13 A  358  ALA LEU ALA VAL LYS PRO SER GLY LEU SER PHE GLU GLN          
  14 A  358  ALA MET GLN THR ARG VAL PHE GLN PRO LEU LYS LEU ASN          
  15 A  358  HIS THR TRP ILE ASN VAL PRO PRO ALA GLU GLU LYS ASN          
  16 A  358  TYR ALA TRP GLY TYR ARG GLU GLY LYS ALA VAL HIS VAL          
  17 A  358  SER PRO GLY ALA LEU ASP ALA GLU ALA TYR GLY VAL LYS          
  18 A  358  SER THR ILE GLU ASP MET ALA ARG TRP VAL GLN SER ASN          
  19 A  358  LEU LYS PRO LEU ASP ILE ASN GLU LYS THR LEU GLN GLN          
  20 A  358  GLY ILE GLN LEU ALA GLN SER ARG TYR TRP GLN THR GLY          
  21 A  358  ASP MET TYR GLN GLY LEU GLY TRP GLU MET LEU ASP TRP          
  22 A  358  PRO VAL ASN PRO ASP SER ILE ILE ASN GLY SER ASP ASN          
  23 A  358  LYS ILE ALA LEU ALA ALA ARG PRO VAL LYS ALA ILE THR          
  24 A  358  PRO PRO THR PRO ALA VAL ARG ALA SER TRP VAL HIS LYS          
  25 A  358  THR GLY ALA THR GLY GLY PHE GLY SER TYR VAL ALA PHE          
  26 A  358  ILE PRO GLU LYS GLU LEU GLY ILE VAL MET LEU ALA ASN          
  27 A  358  LYS ASN TYR PRO ASN PRO ALA ARG VAL ASP ALA ALA TRP          
  28 A  358  GLN ILE LEU ASN ALA LEU GLN                                  
   1 B  358  ALA PRO GLN GLN ILE ASN ASP ILE VAL HIS ARG THR ILE          
   2 B  358  THR PRO LEU ILE GLU GLN GLN LYS ILE PRO GLY MET ALA          
   3 B  358  VAL ALA VAL ILE TYR GLN GLY LYS PRO TYR TYR PHE THR          
   4 B  358  TRP GLY TYR ALA ASP ILE ALA LYS LYS GLN PRO VAL THR          
   5 B  358  GLN GLN THR LEU PHE GLU LEU GLY GLY VAL SER LYS THR          
   6 B  358  PHE THR GLY VAL LEU GLY GLY ASP ALA ILE ALA ARG GLY          
   7 B  358  GLU ILE LYS LEU SER ASP PRO THR THR LYS TYR TRP PRO          
   8 B  358  GLU LEU THR ALA LYS GLN TRP ASN GLY ILE THR LEU LEU          
   9 B  358  HIS LEU ALA THR TYR THR ALA GLY GLY LEU PRO LEU GLN          
  10 B  358  VAL PRO ASP GLU VAL LYS SER SER SER ASP LEU LEU ARG          
  11 B  358  PHE TYR GLN ASN TRP GLN PRO ALA TRP ALA PRO GLY THR          
  12 B  358  GLN ARG LEU TYR ALA ASN SER SER ILE GLY LEU PHE GLY          
  13 B  358  ALA LEU ALA VAL LYS PRO SER GLY LEU SER PHE GLU GLN          
  14 B  358  ALA MET GLN THR ARG VAL PHE GLN PRO LEU LYS LEU ASN          
  15 B  358  HIS THR TRP ILE ASN VAL PRO PRO ALA GLU GLU LYS ASN          
  16 B  358  TYR ALA TRP GLY TYR ARG GLU GLY LYS ALA VAL HIS VAL          
  17 B  358  SER PRO GLY ALA LEU ASP ALA GLU ALA TYR GLY VAL LYS          
  18 B  358  SER THR ILE GLU ASP MET ALA ARG TRP VAL GLN SER ASN          
  19 B  358  LEU LYS PRO LEU ASP ILE ASN GLU LYS THR LEU GLN GLN          
  20 B  358  GLY ILE GLN LEU ALA GLN SER ARG TYR TRP GLN THR GLY          
  21 B  358  ASP MET TYR GLN GLY LEU GLY TRP GLU MET LEU ASP TRP          
  22 B  358  PRO VAL ASN PRO ASP SER ILE ILE ASN GLY SER ASP ASN          
  23 B  358  LYS ILE ALA LEU ALA ALA ARG PRO VAL LYS ALA ILE THR          
  24 B  358  PRO PRO THR PRO ALA VAL ARG ALA SER TRP VAL HIS LYS          
  25 B  358  THR GLY ALA THR GLY GLY PHE GLY SER TYR VAL ALA PHE          
  26 B  358  ILE PRO GLU LYS GLU LEU GLY ILE VAL MET LEU ALA ASN          
  27 B  358  LYS ASN TYR PRO ASN PRO ALA ARG VAL ASP ALA ALA TRP          
  28 B  358  GLN ILE LEU ASN ALA LEU GLN                                  

>  <HET>
 PO4  A 902       5                                                       
 PO4  A 901       5                                                       
 KCP  A 380      46                                                       
 CLS  A 371      26                                                       
 THN  B 372      23                                                       

>  <HETNAM>
     PO4 PHOSPHATE ION                                                    
     KCP 2-[CARBOXY-(2-THIOPHEN-2-YL-ACETYLAMINO)-METHYL]-5-              
   2 KCP  METHYL-3,6-DIHYDRO-2H-[1,3]THIAZINE-4-CARBOXYLIC ACID           
     CLS CEPHALOTHIN                                                      
     THN 2-[CARBOXY-(2-THIOPHEN-2-YL-ACETYLAMINO)-METHYL]-5-              
   2 THN  METHYLENE-5,6-DIHYDRO-2H-[1,3]THIAZINE-4-CARBOXYLIC             
   3 THN  ACID                                                            

>  <HETSYN>
     KCP HYDROLYZED CEPHALOTHIN                                           
     CLS 3-ACETOXYMETHYL-8-OXO-7-(2-THIOPHEN-2-YL-ACETYLAMINO)-           
   2 CLS  5-THIA-1-AZA-BICYCLO[4.2.0]OCT-2-ENE-2-CARBOXYLIC ACID          
     THN HYDROLYZED CEPHALOTHIN                                           

>  <FORMUL>
   3  PO4    2(O4 P 3-)                                                   
   5  KCP    C14 H16 N2 O5 S2                                             
   6  CLS    C16 H16 N2 O6 S2                                             
   7  THN    C14 H14 N2 O5 S2                                             
   8  HOH   *488(H2 O)                                                    

>  <HELIX>
   1   1 PRO A    5  LYS A   24  1                                  20    
   2   2 VAL A   65  ARG A   80  1                                  16    
   3   3 PRO A   88  TYR A   92  5                                   5    
   4   4 ALA A   98  ASN A  102  5                                   5    
   5   5 THR A  105  THR A  111  1                                   7    
   6   6 SER A  127  TRP A  138  1                                  12    
   7   7 ALA A  151  VAL A  163  1                                  13    
   8   8 SER A  169  VAL A  178  1                                  10    
   9   9 PRO A  192  TYR A  199  5                                   8    
  10  10 LEU A  216  TYR A  221  1                                   6    
  11  11 THR A  226  LYS A  239  1                                  14    
  12  12 PRO A  240  ILE A  243  5                                   4    
  13  13 GLU A  245  GLN A  256  1                                  12    
  14  14 ASN A  279  ILE A  284  1                                   6    
  15  15 PRO A  330  LYS A  332  5                                   3    
  16  16 PRO A  345  LEU A  360  1                                  16    
  17  17 PRO B    5  LYS B   24  1                                  20    
  18  18 VAL B   65  ARG B   80  1                                  16    
  19  19 PRO B   88  TRP B   93  1                                   6    
  20  20 ALA B   98  ASN B  102  5                                   5    
  21  21 THR B  105  THR B  111  1                                   7    
  22  22 SER B  127  TRP B  138  1                                  12    
  23  23 ALA B  151  VAL B  163  1                                  13    
  24  24 LYS B  164  GLY B  167  5                                   4    
  25  25 SER B  169  VAL B  178  1                                  10    
  26  26 PRO B  192  TYR B  199  5                                   8    
  27  27 LEU B  216  TYR B  221  1                                   6    
  28  28 THR B  226  LYS B  239  1                                  14    
  29  29 PRO B  240  ILE B  243  5                                   4    
  30  30 GLU B  245  GLN B  256  1                                  12    
  31  31 ASN B  279  SER B  287  1                                   9    
  32  32 ASP B  288  LEU B  293  1                                   6    
  33  33 PRO B  330  GLU B  333  5                                   4    
  34  34 PRO B  345  GLN B  361  1                                  17    

>  <SHEET>
   1   A10 GLN A  52  PRO A  53  0                                        
   2   A10 LYS A  37  ASP A  47 -1  N  ASP A  47   O  GLN A  52           
   3   A10 GLY A  27  TYR A  34 -1  N  VAL A  30   O  PHE A  41           
   4   A10 LEU A 334  ALA A 340 -1  O  LEU A 339   N  ALA A  29           
   5   A10 PHE A 322  ILE A 329 -1  N  ILE A 329   O  LEU A 334           
   6   A10 SER A 311  THR A 319 -1  N  GLY A 317   O  SER A 324           
   7   A10 GLU A 272  ASP A 275 -1  N  LEU A 274   O  TRP A 312           
   8   A10 MET A 265  GLN A 267 -1  N  TYR A 266   O  MET A 273           
   9   A10 ARG A 258  THR A 262 -1  N  THR A 262   O  MET A 265           
  10   A10 LYS A 299  THR A 305 -1  O  LYS A 299   N  GLN A 261           
   1   B 2 PHE A  60  GLU A  61  0                                        
   2   B 2 LYS A 224  SER A 225 -1  O  SER A 225   N  PHE A  60           
   1   C 2 GLN A 147  ARG A 148  0                                        
   2   C 2 ARG A 296  PRO A 297 -1  O  ARG A 296   N  ARG A 148           
   1   D 2 GLY A 202  ARG A 204  0                                        
   2   D 2 LYS A 207  VAL A 209 -1  O  VAL A 209   N  GLY A 202           
   1   E10 GLN B  52  PRO B  53  0                                        
   2   E10 LYS B  37  ASP B  47 -1  N  ASP B  47   O  GLN B  52           
   3   E10 GLY B  27  TYR B  34 -1  N  TYR B  34   O  LYS B  37           
   4   E10 LEU B 334  ALA B 340 -1  O  GLY B 335   N  ILE B  33           
   5   E10 PHE B 322  ILE B 329 -1  N  ILE B 329   O  LEU B 334           
   6   E10 SER B 311  THR B 319 -1  N  GLY B 317   O  SER B 324           
   7   E10 GLU B 272  ASP B 275 -1  N  LEU B 274   O  TRP B 312           
   8   E10 MET B 265  GLN B 267 -1  N  TYR B 266   O  MET B 273           
   9   E10 ARG B 258  THR B 262 -1  N  THR B 262   O  MET B 265           
  10   E10 LYS B 299  THR B 305 -1  O  THR B 305   N  ARG B 258           
   1   F 2 PHE B  60  GLU B  61  0                                        
   2   F 2 LYS B 224  SER B 225 -1  O  SER B 225   N  PHE B  60           
   1   G 2 GLN B 147  ARG B 148  0                                        
   2   G 2 ARG B 296  PRO B 297 -1  O  ARG B 296   N  ARG B 148           
   1   H 2 GLY B 202  ARG B 204  0                                        
   2   H 2 LYS B 207  VAL B 209 -1  O  VAL B 209   N  GLY B 202           

>  <LINK>
       NZ ALYS A 164                 C3'AKCP A 380     1555   1555  1.49  
       NZ BLYS A 164                 C3'BKCP A 380     1555   1555  1.48  

>  <CISPEP>
   1 TRP A  276    PRO A  277          0         0.20                     
   2 THR A  302    PRO A  303          0         0.06                     
   3 TRP B  276    PRO B  277          0        -0.02                     
   4 THR B  302    PRO B  303          0        -0.22                     

>  <SITE>
   1 AC1  5 GLY A  64  LYS A  67  TYR A 150  GLY A 317                    
   2 AC1  5 ALA A 318                                                     
   1 AC2  6 ARG A 133  ASN A 185  HIS A 186  GLU A 195                    
   2 AC2  6 HOH A 630  HOH A 877                                          
   1 AC3 17 TYR A  92  TRP A  93  SER A 127  SER A 128                    
   2 AC3 17 LEU A 161  LYS A 164  GLY A 167  SER A 169                    
   3 AC3 17 ALA A 215  HOH A 644  HOH A 686  HOH A 720                    
   4 AC3 17 HOH A 733  HOH A 857  ASN B 279  PRO B 280                    
   5 AC3 17 ASP B 281                                                     
   1 AC4 15 GLY A  64  GLN A 120  TYR A 150  ASN A 152                    
   2 AC4 15 TYR A 221  ASN A 289  LYS A 315  THR A 316                    
   3 AC4 15 GLY A 317  ALA A 318  HOH A 401  HOH A 514                    
   4 AC4 15 HOH A 681  HOH A 718  HOH A 784                               
   1 AC5 11 GLY B  64  LYS B  67  GLN B 120  TYR B 150                    
   2 AC5 11 ASN B 152  TYR B 221  ASN B 289  LEU B 293                    
   3 AC5 11 GLY B 317  ALA B 318  GLY B 320                               

>  <ORIGX1>
      1.000000  0.000000  0.000000        0.00000                         

>  <ORIGX2>
      0.000000  1.000000  0.000000        0.00000                         

>  <ORIGX3>
      0.000000  0.000000  1.000000        0.00000                         

>  <SCALE1>
      0.008430  0.000000  0.004094        0.00000                         

>  <SCALE2>
      0.000000  0.012961  0.000000        0.00000                         

>  <SCALE3>
      0.000000  0.000000  0.011336        0.00000                         

>  <MASTER>
      359    0    5   34   32    0   16    6 6114    2  107   56          

$$$$
