start_structures/Ligand_Substrate/Ligand_Complex_Stripped/KJK_6SP6.pdb
 OpenBabel08222315203D

 34 36  0  0  1  0  0  0  0  0999 V2000
   -3.5690    5.1890  -15.0320 N   0  0  0  0  0  0  0  0  0  0  0  0
   -4.7990    5.3730  -15.7820 C   0  0  2  0  0  0  0  0  0  0  0  0
   -5.0110    6.7750  -16.2930 C   0  0  0  0  0  0  0  0  0  0  0  0
   -5.9590    7.0120  -17.0670 O   0  0  0  0  0  0  0  0  0  0  0  0
   -6.0360    4.9020  -15.0010 C   0  0  0  0  0  0  0  0  0  0  0  0
   -5.9940    3.5080  -14.7260 O   0  0  0  0  0  0  0  0  0  0  0  0
   -5.8410    3.0440  -13.2990 B   0  0  1  0  0  0  0  0  0  0  0  0
   -7.4070    3.1350  -11.4700 C   0  0  0  0  0  0  0  0  0  0  0  0
   -7.7600    3.8900  -10.3540 C   0  0  0  0  0  0  0  0  0  0  0  0
   -7.6860    5.3880  -10.3920 C   0  0  0  0  0  0  0  0  0  0  0  0
   -8.2200    3.2210   -9.1760 C   0  0  0  0  0  0  0  0  0  0  0  0
   -8.3560    1.8310   -9.1620 C   0  0  0  0  0  0  0  0  0  0  0  0
   -8.0320    1.0790  -10.3130 C   0  0  0  0  0  0  0  0  0  0  0  0
   -7.5940    1.7590  -11.4820 C   0  0  0  0  0  0  0  0  0  0  0  0
   -7.2480    1.0120  -12.7320 C   0  0  0  0  0  0  0  0  0  0  0  0
   -5.8670    1.4340  -13.2300 C   0  0  2  0  0  0  0  0  0  0  0  0
   -4.5140   -0.3500  -12.1040 C   0  0  0  0  0  0  0  0  0  0  0  0
   -3.5620   -0.6970  -10.9580 C   0  0  0  0  0  0  0  0  0  0  0  0
   -4.2350   -0.4550   -9.5910 C   0  0  2  0  0  0  0  0  0  0  0  0
   -3.2210   -0.7580   -8.4650 C   0  0  0  0  0  0  0  0  0  0  0  0
   -3.8530   -0.6010   -7.0710 C   0  0  0  0  0  0  0  0  0  0  0  0
   -5.0940   -1.4470   -6.9330 C   0  0  2  0  0  0  0  0  0  0  0  0
   -4.9460   -1.8640   -4.5110 C   0  0  0  0  0  0  0  0  0  0  0  0
   -5.5690   -1.5760   -3.1580 C   0  0  0  0  0  0  0  0  0  0  0  0
   -6.0980   -1.2390   -8.0600 C   0  0  0  0  0  0  0  0  0  0  0  0
   -5.4260   -1.3940   -9.4310 C   0  0  0  0  0  0  0  0  0  0  0  0
   -4.8430    0.9580  -12.2650 N   0  0  0  0  0  0  0  0  0  0  0  0
   -5.7590   -1.3210   -5.6170 N   0  0  0  0  0  0  0  0  0  0  0  0
   -4.8600   -2.4610   -2.2210 N   0  0  0  0  0  0  0  0  0  0  0  0
   -4.5070    3.6330  -12.8500 O   0  0  0  0  0  0  0  0  0  0  0  0
   -6.9240    3.7380  -12.6140 O   0  0  0  0  0  0  0  0  0  0  0  0
   -8.1640    5.9850  -11.3810 O   0  0  0  0  0  0  0  0  0  0  0  0
   -7.3050    5.9970   -9.3770 O   0  0  0  0  0  0  0  0  0  0  0  0
   -4.9330   -1.2200  -12.8630 O   0  0  0  0  0  0  0  0  0  0  0  0
  2  1  1  1  0  0  0
  2  5  1  0  0  0  0
  3  2  1  0  0  0  0
  4  3  2  0  0  0  0
  5  6  1  0  0  0  0
  6  7  1  0  0  0  0
  7 16  1  0  0  0  0
  7 30  1  1  0  0  0
  7 31  1  0  0  0  0
  8  9  2  0  0  0  0
  8 14  1  0  0  0  0
  8 31  1  0  0  0  0
  9 10  1  0  0  0  0
  9 11  1  0  0  0  0
 10 32  2  0  0  0  0
 10 33  1  0  0  0  0
 11 12  2  0  0  0  0
 12 13  1  0  0  0  0
 13 14  2  0  0  0  0
 14 15  1  0  0  0  0
 15 16  1  0  0  0  0
 16 27  1  1  0  0  0
 17 18  1  0  0  0  0
 17 27  1  0  0  0  0
 17 34  2  0  0  0  0
 19 18  1  6  0  0  0
 19 20  1  0  0  0  0
 19 26  1  0  0  0  0
 20 21  1  0  0  0  0
 21 22  1  0  0  0  0
 22 25  1  0  0  0  0
 22 28  1  1  0  0  0
 23 24  1  0  0  0  0
 23 28  1  0  0  0  0
 24 29  1  0  0  0  0
 25 26  1  0  0  0  0
M  END
>  <HEADER>
    HYDROLASE                               31-AUG-19   6SP6              

>  <TITLE>
    ULTRA-HIGH RESOLUTION CRYSTAL STRUCTURE OF THE CTX-M-15 EXTENDED-     
   2 SPECTRUM BETA-LACTAMASE IN COMPLEX WITH TANIBORBACTAM (VNRX-5133)    

>  <COMPND>
    MOL_ID: 1;                                                            
   2 MOLECULE: BETA-LACTAMASE;                                            
   3 CHAIN: A;                                                            
   4 EC: 3.5.2.6;                                                         
   5 ENGINEERED: YES                                                      

>  <SOURCE>
    MOL_ID: 1;                                                            
   2 ORGANISM_SCIENTIFIC: ESCHERICHIA COLI;                               
   3 ORGANISM_TAXID: 562;                                                 
   4 GENE: BLACTX-M-15;                                                   
   5 EXPRESSION_SYSTEM: ESCHERICHIA COLI BL21(DE3);                       
   6 EXPRESSION_SYSTEM_TAXID: 469008;                                     
   7 EXPRESSION_SYSTEM_VECTOR_TYPE: PLASMID;                              
   8 EXPRESSION_SYSTEM_PLASMID: PET-9A                                    

>  <KEYWDS>
    BETA-LACTAMASE, HYDROLASE, ANTIBIOTIC RESISTANCE, BETA-LACTAM         
   2 HYDROLYSIS                                                           

>  <EXPDTA>
    X-RAY DIFFRACTION                                                     

>  <AUTHOR>
    J.D.DOCQUIER,C.POZZI,F.DE LUCA,M.BENVENUTI,S.MANGANI                  

>  <REVDAT>
   2   08-APR-20 6SP6    1       JRNL                                     
   1   22-JAN-20 6SP6    0                                                

>  <JRNL>
      AUTH   B.LIU,R.E.L.TROUT,G.H.CHU,D.MCGARRY,R.W.JACKSON,J.C.HAMRICK, 
      AUTH 2 D.M.DAIGLE,S.M.CUSICK,C.POZZI,F.DE LUCA,M.BENVENUTI,         
      AUTH 3 S.MANGANI,J.D.DOCQUIER,W.J.WEISS,D.C.PEVEAR,L.XERRI,         
      AUTH 4 C.J.BURNS                                                    
      TITL   DISCOVERY OF TANIBORBACTAM (VNRX-5133): A BROAD-SPECTRUM     
      TITL 2 SERINE- AND METALLO-BETA-LACTAMASE INHIBITOR FOR             
      TITL 3 CARBAPENEM-RESISTANT BACTERIAL INFECTIONS.                   
      REF    J.MED.CHEM.                   V.  63  2789 2020              
      REFN                   ISSN 0022-2623                               
      PMID   31765155                                                     
      DOI    10.1021/ACS.JMEDCHEM.9B01518                                 

>  <REMARK>
   1                                                                      
   1 REFERENCE 1                                                          
   1  AUTH   J.C.HAMRICK,J.D.DOCQUIER,T.UEHARA,C.L.MYERS,D.A.SIX,         
   1  AUTH 2 C.L.CHATWIN,K.J.JOHN,S.F.VERNACCHIO,S.M.CUSICK,R.E.L.TROUT,  
   1  AUTH 3 C.POZZI,F.DE LUCA,M.BENVENUTI,S.MANGANI,B.LIU,R.W.JACKSON,   
   1  AUTH 4 G.MOECK,L.XERRI,C.J.BURNS,D.C.PEVEAR,D.M.DAIGLE              
   1  TITL   VNRX-5133 (TANIBORBACTAM), A BROAD-SPECTRUM INHIBITOR OF     
   1  TITL 2 SERINE- AND METALLO-BETA-LACTAMASES, RESTORES ACTIVITY OF    
   1  TITL 3 CEFEPIME IN ENTEROBACTERALES AND PSEUDOMONAS AERUGINOSA.     
   1  REF    ANTIMICROB. AGENTS                         2019              
   1  REF  2 CHEMOTHER.                                                   
   1  REFN                   ESSN 1098-6596                               
   1  PMID   31871094                                                     
   1  DOI    10.1128/AAC.01963-19                                         
   2                                                                      
   2 RESOLUTION.    1.10 ANGSTROMS.                                       
   3                                                                      
   3 REFINEMENT.                                                          
   3   PROGRAM     : REFMAC 5.8.0135                                      
   3   AUTHORS     : MURSHUDOV,SKUBAK,LEBEDEV,PANNU,STEINER,              
   3               : NICHOLLS,WINN,LONG,VAGIN                             
   3                                                                      
   3    REFINEMENT TARGET : MAXIMUM LIKELIHOOD                            
   3                                                                      
   3  DATA USED IN REFINEMENT.                                            
   3   RESOLUTION RANGE HIGH (ANGSTROMS) : 1.10                           
   3   RESOLUTION RANGE LOW  (ANGSTROMS) : 58.61                          
   3   DATA CUTOFF            (SIGMA(F)) : 0.000                          
   3   COMPLETENESS FOR RANGE        (%) : 98.8                           
   3   NUMBER OF REFLECTIONS             : 92020                          
   3                                                                      
   3  FIT TO DATA USED IN REFINEMENT.                                     
   3   CROSS-VALIDATION METHOD          : THROUGHOUT                      
   3   FREE R VALUE TEST SET SELECTION  : RANDOM                          
   3   R VALUE     (WORKING + TEST SET) : 0.103                           
   3   R VALUE            (WORKING SET) : 0.102                           
   3   FREE R VALUE                     : 0.121                           
   3   FREE R VALUE TEST SET SIZE   (%) : 4.900                           
   3   FREE R VALUE TEST SET COUNT      : 4746                            
   3                                                                      
   3  FIT IN THE HIGHEST RESOLUTION BIN.                                  
   3   TOTAL NUMBER OF BINS USED           : 20                           
   3   BIN RESOLUTION RANGE HIGH       (A) : 1.10                         
   3   BIN RESOLUTION RANGE LOW        (A) : 1.13                         
   3   REFLECTION IN BIN     (WORKING SET) : 6620                         
   3   BIN COMPLETENESS (WORKING+TEST) (%) : 97.21                        
   3   BIN R VALUE           (WORKING SET) : 0.1570                       
   3   BIN FREE R VALUE SET COUNT          : 306                          
   3   BIN FREE R VALUE                    : 0.1840                       
   3                                                                      
   3  NUMBER OF NON-HYDROGEN ATOMS USED IN REFINEMENT.                    
   3   PROTEIN ATOMS            : 1957                                    
   3   NUCLEIC ACID ATOMS       : 0                                       
   3   HETEROGEN ATOMS          : 71                                      
   3   SOLVENT ATOMS            : 261                                     
   3                                                                      
   3  B VALUES.                                                           
   3   FROM WILSON PLOT           (A**2) : NULL                           
   3   MEAN B VALUE      (OVERALL, A**2) : 12.10                          
   3   OVERALL ANISOTROPIC B VALUE.                                       
   3    B11 (A**2) : -0.01000                                             
   3    B22 (A**2) : -0.01000                                             
   3    B33 (A**2) : 0.02000                                              
   3    B12 (A**2) : 0.00000                                              
   3    B13 (A**2) : 0.00000                                              
   3    B23 (A**2) : 0.00000                                              
   3                                                                      
   3  ESTIMATED OVERALL COORDINATE ERROR.                                 
   3   ESU BASED ON R VALUE                            (A): 0.021         
   3   ESU BASED ON FREE R VALUE                       (A): 0.022         
   3   ESU BASED ON MAXIMUM LIKELIHOOD                 (A): 0.014         
   3   ESU FOR B VALUES BASED ON MAXIMUM LIKELIHOOD (A**2): 0.643         
   3                                                                      
   3 CORRELATION COEFFICIENTS.                                            
   3   CORRELATION COEFFICIENT FO-FC      : 0.984                         
   3   CORRELATION COEFFICIENT FO-FC FREE : 0.982                         
   3                                                                      
   3  RMS DEVIATIONS FROM IDEAL VALUES        COUNT    RMS    WEIGHT      
   3   BOND LENGTHS REFINED ATOMS        (A):  2152 ; 0.025 ; 0.019       
   3   BOND LENGTHS OTHERS               (A):  2093 ; 0.005 ; 0.020       
   3   BOND ANGLES REFINED ATOMS   (DEGREES):  2928 ; 2.160 ; 1.996       
   3   BOND ANGLES OTHERS          (DEGREES):  4825 ; 1.124 ; 3.000       
   3   TORSION ANGLES, PERIOD 1    (DEGREES):   286 ; 5.900 ; 5.000       
   3   TORSION ANGLES, PERIOD 2    (DEGREES):    87 ;37.272 ;24.483       
   3   TORSION ANGLES, PERIOD 3    (DEGREES):   371 ;11.969 ;15.000       
   3   TORSION ANGLES, PERIOD 4    (DEGREES):    17 ;11.775 ;15.000       
   3   CHIRAL-CENTER RESTRAINTS       (A**3):   338 ; 0.150 ; 0.200       
   3   GENERAL PLANES REFINED ATOMS      (A):  2458 ; 0.013 ; 0.021       
   3   GENERAL PLANES OTHERS             (A):   464 ; 0.002 ; 0.020       
   3   NON-BONDED CONTACTS REFINED ATOMS (A):  NULL ;  NULL ;  NULL       
   3   NON-BONDED CONTACTS OTHERS        (A):  NULL ;  NULL ;  NULL       
   3   NON-BONDED TORSION REFINED ATOMS  (A):  NULL ;  NULL ;  NULL       
   3   NON-BONDED TORSION OTHERS         (A):  NULL ;  NULL ;  NULL       
   3   H-BOND (X...Y) REFINED ATOMS      (A):  NULL ;  NULL ;  NULL       
   3   H-BOND (X...Y) OTHERS             (A):  NULL ;  NULL ;  NULL       
   3   POTENTIAL METAL-ION REFINED ATOMS (A):  NULL ;  NULL ;  NULL       
   3   POTENTIAL METAL-ION OTHERS        (A):  NULL ;  NULL ;  NULL       
   3   SYMMETRY VDW REFINED ATOMS        (A):  NULL ;  NULL ;  NULL       
   3   SYMMETRY VDW OTHERS               (A):  NULL ;  NULL ;  NULL       
   3   SYMMETRY H-BOND REFINED ATOMS     (A):  NULL ;  NULL ;  NULL       
   3   SYMMETRY H-BOND OTHERS            (A):  NULL ;  NULL ;  NULL       
   3   SYMMETRY METAL-ION REFINED ATOMS  (A):  NULL ;  NULL ;  NULL       
   3   SYMMETRY METAL-ION OTHERS         (A):  NULL ;  NULL ;  NULL       
   3                                                                      
   3  ISOTROPIC THERMAL FACTOR RESTRAINTS.     COUNT   RMS    WEIGHT      
   3   MAIN-CHAIN BOND REFINED ATOMS  (A**2):  NULL ;  NULL ;  NULL       
   3   MAIN-CHAIN BOND OTHER ATOMS    (A**2):  NULL ;  NULL ;  NULL       
   3   MAIN-CHAIN ANGLE REFINED ATOMS (A**2):  NULL ;  NULL ;  NULL       
   3   MAIN-CHAIN ANGLE OTHER ATOMS   (A**2):  NULL ;  NULL ;  NULL       
   3   SIDE-CHAIN BOND REFINED ATOMS  (A**2):  NULL ;  NULL ;  NULL       
   3   SIDE-CHAIN BOND OTHER ATOMS    (A**2):  NULL ;  NULL ;  NULL       
   3   SIDE-CHAIN ANGLE REFINED ATOMS (A**2):  NULL ;  NULL ;  NULL       
   3   SIDE-CHAIN ANGLE OTHER ATOMS   (A**2):  NULL ;  NULL ;  NULL       
   3   LONG RANGE B REFINED ATOMS     (A**2):  NULL ;  NULL ;  NULL       
   3   LONG RANGE B OTHER ATOMS       (A**2):  NULL ;  NULL ;  NULL       
   3                                                                      
   3 ANISOTROPIC THERMAL FACTOR RESTRAINTS.    COUNT   RMS   WEIGHT       
   3   RIGID-BOND RESTRAINTS          (A**2):  4244 ; 6.730 ; 3.000       
   3   SPHERICITY; FREE ATOMS         (A**2):    76 ;52.044 ; 5.000       
   3   SPHERICITY; BONDED ATOMS       (A**2):  4394 ;14.434 ; 5.000       
   3                                                                      
   3  NCS RESTRAINTS STATISTICS                                           
   3   NUMBER OF DIFFERENT NCS GROUPS : NULL                              
   3                                                                      
   3  TLS DETAILS                                                         
   3   NUMBER OF TLS GROUPS  : NULL                                       
   3                                                                      
   3  BULK SOLVENT MODELLING.                                             
   3   METHOD USED : MASK                                                 
   3   PARAMETERS FOR MASK CALCULATION                                    
   3   VDW PROBE RADIUS   : 1.20                                          
   3   ION PROBE RADIUS   : 0.80                                          
   3   SHRINKAGE RADIUS   : 0.80                                          
   3                                                                      
   3  OTHER REFINEMENT REMARKS: HYDROGENS HAVE BEEN ADDED IN THE RIDING   
   3  POSITIONS U VALUES : REFINED INDIVIDUALLY                           
   4                                                                      
   4 6SP6 COMPLIES WITH FORMAT V. 3.30, 13-JUL-11                         
 100                                                                      
 100 THIS ENTRY HAS BEEN PROCESSED BY PDBE ON 02-SEP-19.                  
 100 THE DEPOSITION ID IS D_1292104029.                                   
 200                                                                      
 200 EXPERIMENTAL DETAILS                                                 
 200  EXPERIMENT TYPE                : X-RAY DIFFRACTION                  
 200  DATE OF DATA COLLECTION        : 26-JUN-15                          
 200  TEMPERATURE           (KELVIN) : 100                                
 200  PH                             : 8.0                                
 200  NUMBER OF CRYSTALS USED        : 1                                  
 200                                                                      
 200  SYNCHROTRON              (Y/N) : Y                                  
 200  RADIATION SOURCE               : ESRF                               
 200  BEAMLINE                       : MASSIF-1                           
 200  X-RAY GENERATOR MODEL          : NULL                               
 200  MONOCHROMATIC OR LAUE    (M/L) : M                                  
 200  WAVELENGTH OR RANGE        (A) : 0.966                              
 200  MONOCHROMATOR                  : NULL                               
 200  OPTICS                         : NULL                               
 200                                                                      
 200  DETECTOR TYPE                  : PIXEL                              
 200  DETECTOR MANUFACTURER          : DECTRIS PILATUS3 2M                
 200  INTENSITY-INTEGRATION SOFTWARE : MOSFLM 7.1.2                       
 200  DATA SCALING SOFTWARE          : SCALA 3.3.21                       
 200                                                                      
 200  NUMBER OF UNIQUE REFLECTIONS   : 96837                              
 200  RESOLUTION RANGE HIGH      (A) : 1.100                              
 200  RESOLUTION RANGE LOW       (A) : 58.610                             
 200  REJECTION CRITERIA  (SIGMA(I)) : NULL                               
 200                                                                      
 200 OVERALL.                                                             
 200  COMPLETENESS FOR RANGE     (%) : 98.9                               
 200  DATA REDUNDANCY                : 5.300                              
 200  R MERGE                    (I) : NULL                               
 200  R SYM                      (I) : 0.07500                            
 200  <I/SIGMA(I)> FOR THE DATA SET  : 11.6000                            
 200                                                                      
 200 IN THE HIGHEST RESOLUTION SHELL.                                     
 200  HIGHEST RESOLUTION SHELL, RANGE HIGH (A) : 1.10                     
 200  HIGHEST RESOLUTION SHELL, RANGE LOW  (A) : 1.16                     
 200  COMPLETENESS FOR SHELL     (%) : 97.5                               
 200  DATA REDUNDANCY IN SHELL       : 5.30                               
 200  R MERGE FOR SHELL          (I) : 0.30400                            
 200  R SYM FOR SHELL            (I) : 0.30400                            
 200  <I/SIGMA(I)> FOR SHELL         : 2.500                              
 200                                                                      
 200 DIFFRACTION PROTOCOL: SINGLE WAVELENGTH                              
 200 METHOD USED TO DETERMINE THE STRUCTURE: MOLECULAR REPLACEMENT        
 200 SOFTWARE USED: MOLREP 11.2.08                                        
 200 STARTING MODEL: 4HBT                                                 
 200                                                                      
 200 REMARK: NULL                                                         
 280                                                                      
 280 CRYSTAL                                                              
 280 SOLVENT CONTENT, VS   (%): 42.29                                     
 280 MATTHEWS COEFFICIENT, VM (ANGSTROMS**3/DA): 2.13                     
 280                                                                      
 280 CRYSTALLIZATION CONDITIONS: 0.1M TRIS-HCL, 2.2-2.4M AMMONIUM         
 280  SULFATE, PH 8.0, VAPOR DIFFUSION, SITTING DROP, TEMPERATURE 293K    
 290                                                                      
 290 CRYSTALLOGRAPHIC SYMMETRY                                            
 290 SYMMETRY OPERATORS FOR SPACE GROUP: P 21 21 21                       
 290                                                                      
 290      SYMOP   SYMMETRY                                                
 290     NNNMMM   OPERATOR                                                
 290       1555   X,Y,Z                                                   
 290       2555   -X+1/2,-Y,Z+1/2                                         
 290       3555   -X,Y+1/2,-Z+1/2                                         
 290       4555   X+1/2,-Y+1/2,-Z                                         
 290                                                                      
 290     WHERE NNN -> OPERATOR NUMBER                                     
 290           MMM -> TRANSLATION VECTOR                                  
 290                                                                      
 290 CRYSTALLOGRAPHIC SYMMETRY TRANSFORMATIONS                            
 290 THE FOLLOWING TRANSFORMATIONS OPERATE ON THE ATOM/HETATM             
 290 RECORDS IN THIS ENTRY TO PRODUCE CRYSTALLOGRAPHICALLY                
 290 RELATED MOLECULES.                                                   
 290   SMTRY1   1  1.000000  0.000000  0.000000        0.00000            
 290   SMTRY2   1  0.000000  1.000000  0.000000        0.00000            
 290   SMTRY3   1  0.000000  0.000000  1.000000        0.00000            
 290   SMTRY1   2 -1.000000  0.000000  0.000000       22.27900            
 290   SMTRY2   2  0.000000 -1.000000  0.000000        0.00000            
 290   SMTRY3   2  0.000000  0.000000  1.000000       58.60950            
 290   SMTRY1   3 -1.000000  0.000000  0.000000        0.00000            
 290   SMTRY2   3  0.000000  1.000000  0.000000       22.85950            
 290   SMTRY3   3  0.000000  0.000000 -1.000000       58.60950            
 290   SMTRY1   4  1.000000  0.000000  0.000000       22.27900            
 290   SMTRY2   4  0.000000 -1.000000  0.000000       22.85950            
 290   SMTRY3   4  0.000000  0.000000 -1.000000        0.00000            
 290                                                                      
 290 REMARK: NULL                                                         
 300                                                                      
 300 BIOMOLECULE: 1                                                       
 300 SEE REMARK 350 FOR THE AUTHOR PROVIDED AND/OR PROGRAM                
 300 GENERATED ASSEMBLY INFORMATION FOR THE STRUCTURE IN                  
 300 THIS ENTRY. THE REMARK MAY ALSO PROVIDE INFORMATION ON               
 300 BURIED SURFACE AREA.                                                 
 350                                                                      
 350 COORDINATES FOR A COMPLETE MULTIMER REPRESENTING THE KNOWN           
 350 BIOLOGICALLY SIGNIFICANT OLIGOMERIZATION STATE OF THE                
 350 MOLECULE CAN BE GENERATED BY APPLYING BIOMT TRANSFORMATIONS          
 350 GIVEN BELOW.  BOTH NON-CRYSTALLOGRAPHIC AND                          
 350 CRYSTALLOGRAPHIC OPERATIONS ARE GIVEN.                               
 350                                                                      
 350 BIOMOLECULE: 1                                                       
 350 AUTHOR DETERMINED BIOLOGICAL UNIT: MONOMERIC                         
 350 SOFTWARE DETERMINED QUATERNARY STRUCTURE: MONOMERIC                  
 350 SOFTWARE USED: PISA                                                  
 350 TOTAL BURIED SURFACE AREA: 1260 ANGSTROM**2                          
 350 SURFACE AREA OF THE COMPLEX: 11200 ANGSTROM**2                       
 350 CHANGE IN SOLVENT FREE ENERGY: -28.0 KCAL/MOL                        
 350 APPLY THE FOLLOWING TO CHAINS: A                                     
 350   BIOMT1   1  1.000000  0.000000  0.000000        0.00000            
 350   BIOMT2   1  0.000000  1.000000  0.000000        0.00000            
 350   BIOMT3   1  0.000000  0.000000  1.000000        0.00000            
 470                                                                      
 470 MISSING ATOM                                                         
 470 THE FOLLOWING RESIDUES HAVE MISSING ATOMS (M=MODEL NUMBER;           
 470 RES=RESIDUE NAME; C=CHAIN IDENTIFIER; SSEQ=SEQUENCE NUMBER;          
 470 I=INSERTION CODE):                                                   
 470   M RES CSSEQI  ATOMS                                                
 470     THR A  27    N    CA   CB   OG1  CG2                             
 470     ASP A  29    OD1  OD2                                            
 500                                                                      
 500 GEOMETRY AND STEREOCHEMISTRY                                         
 500 SUBTOPIC: TORSION ANGLES                                             
 500                                                                      
 500 TORSION ANGLES OUTSIDE THE EXPECTED RAMACHANDRAN REGIONS:            
 500 (M=MODEL NUMBER; RES=RESIDUE NAME; C=CHAIN IDENTIFIER;               
 500 SSEQ=SEQUENCE NUMBER; I=INSERTION CODE).                             
 500                                                                      
 500 STANDARD TABLE:                                                      
 500 FORMAT:(10X,I3,1X,A3,1X,A1,I4,A1,4X,F7.2,3X,F7.2)                    
 500                                                                      
 500 EXPECTED VALUES: GJ KLEYWEGT AND TA JONES (1996). PHI/PSI-           
 500 CHOLOGY: RAMACHANDRAN REVISITED. STRUCTURE 4, 1395 - 1400            
 500                                                                      
 500  M RES CSSEQI        PSI       PHI                                   
 500    CYS A  69     -140.00     52.62                                   
 500    VAL A 103     -141.99   -124.49                                   
 500    ASN A 114       -2.04     92.43                                   
 500    ASN A 114       17.22     80.77                                   
 500    SER A 220     -122.25   -105.86                                   
 500                                                                      
 500 REMARK: NULL                                                         
 800                                                                      
 800 SITE                                                                 
 800 SITE_IDENTIFIER: AC1                                                 
 800 EVIDENCE_CODE: SOFTWARE                                              
 800 SITE_DESCRIPTION: binding site for residue SO4 A 303                 
 800                                                                      
 800 SITE_IDENTIFIER: AC2                                                 
 800 EVIDENCE_CODE: SOFTWARE                                              
 800 SITE_DESCRIPTION: binding site for residue SO4 A 304                 
 800                                                                      
 800 SITE_IDENTIFIER: AC3                                                 
 800 EVIDENCE_CODE: SOFTWARE                                              
 800 SITE_DESCRIPTION: binding site for residue SO4 A 305                 
 800                                                                      
 800 SITE_IDENTIFIER: AC4                                                 
 800 EVIDENCE_CODE: SOFTWARE                                              
 800 SITE_DESCRIPTION: binding site for residue KJK A 306                 
 800                                                                      
 800 SITE_IDENTIFIER: AC5                                                 
 800 EVIDENCE_CODE: SOFTWARE                                              
 800 SITE_DESCRIPTION: binding site for residue EDO A 307                 
 800                                                                      
 800 SITE_IDENTIFIER: AC6                                                 
 800 EVIDENCE_CODE: SOFTWARE                                              
 800 SITE_DESCRIPTION: binding site for residue EDO A 308                 
 800                                                                      
 800 SITE_IDENTIFIER: AC7                                                 
 800 EVIDENCE_CODE: SOFTWARE                                              
 800 SITE_DESCRIPTION: binding site for residue PGE A 309                 
 800                                                                      
 800 SITE_IDENTIFIER: AC8                                                 
 800 EVIDENCE_CODE: SOFTWARE                                              
 800 SITE_DESCRIPTION: binding site for residues SO4 A 301 and SO4 A      
 800  302                                                                 
 800                                                                      
 800 SITE_IDENTIFIER: AC9                                                 
 800 EVIDENCE_CODE: SOFTWARE                                              
 800 SITE_DESCRIPTION: binding site for residues SO4 A 301 and SO4 A      
 800  302                                                                 
 800                                                                      
 800 SITE_IDENTIFIER: AD1                                                 
 800 EVIDENCE_CODE: SOFTWARE                                              
 800 SITE_DESCRIPTION: binding site for residues SO4 A 301 and SO4 A      
 800  302                                                                 
 800                                                                      
 800 SITE_IDENTIFIER: AD2                                                 
 800 EVIDENCE_CODE: SOFTWARE                                              
 800 SITE_DESCRIPTION: binding site for residues SO4 A 301 and SO4 A      
 800  302                                                                 
 800                                                                      
 800 SITE_IDENTIFIER: AD3                                                 
 800 EVIDENCE_CODE: SOFTWARE                                              
 800 SITE_DESCRIPTION: binding site for residues SO4 A 301 and SO4 A      
 800  302                                                                 
 800                                                                      
 800 SITE_IDENTIFIER: AD4                                                 
 800 EVIDENCE_CODE: SOFTWARE                                              
 800 SITE_DESCRIPTION: binding site for residues SO4 A 301 and SO4 A      
 800  302                                                                 
 800                                                                      
 800 SITE_IDENTIFIER: AD5                                                 
 800 EVIDENCE_CODE: SOFTWARE                                              
 800 SITE_DESCRIPTION: binding site for residues SO4 A 301 and SO4 A      
 800  302                                                                 
 800                                                                      
 800 SITE_IDENTIFIER: AD6                                                 
 800 EVIDENCE_CODE: SOFTWARE                                              
 800 SITE_DESCRIPTION: binding site for residues SO4 A 301 and SO4 A      
 800  302                                                                 

>  <DBREF1>
 6SP6 A   27   288  UNP                  A0A223A5J4_ECOLX                 

>  <DBREF2>
 6SP6 A     A0A223A5J4                         11         272             

>  <SEQRES>
   1 A  262  THR ALA ASP VAL GLN GLN LYS LEU ALA GLU LEU GLU ARG          
   2 A  262  GLN SER GLY GLY ARG LEU GLY VAL ALA LEU ILE ASN THR          
   3 A  262  ALA ASP ASN SER GLN ILE LEU TYR ARG ALA ASP GLU ARG          
   4 A  262  PHE ALA MET CYS SER THR SER LYS VAL MET ALA ALA ALA          
   5 A  262  ALA VAL LEU LYS LYS SER GLU SER GLU PRO ASN LEU LEU          
   6 A  262  ASN GLN ARG VAL GLU ILE LYS LYS SER ASP LEU VAL ASN          
   7 A  262  TYR ASN PRO ILE ALA GLU LYS HIS VAL ASN GLY THR MET          
   8 A  262  SER LEU ALA GLU LEU SER ALA ALA ALA LEU GLN TYR SER          
   9 A  262  ASP ASN VAL ALA MET ASN LYS LEU ILE ALA HIS VAL GLY          
  10 A  262  GLY PRO ALA SER VAL THR ALA PHE ALA ARG GLN LEU GLY          
  11 A  262  ASP GLU THR PHE ARG LEU ASP ARG THR GLU PRO THR LEU          
  12 A  262  ASN THR ALA ILE PRO GLY ASP PRO ARG ASP THR THR SER          
  13 A  262  PRO ARG ALA MET ALA GLN THR LEU ARG ASN LEU THR LEU          
  14 A  262  GLY LYS ALA LEU GLY ASP SER GLN ARG ALA GLN LEU VAL          
  15 A  262  THR TRP MET LYS GLY ASN THR THR GLY ALA ALA SER ILE          
  16 A  262  GLN ALA GLY LEU PRO ALA SER TRP VAL VAL GLY ASP LYS          
  17 A  262  THR GLY SER GLY GLY TYR GLY THR THR ASN ASP ILE ALA          
  18 A  262  VAL ILE TRP PRO LYS ASP ARG ALA PRO LEU ILE LEU VAL          
  19 A  262  THR TYR PHE THR GLN PRO GLN PRO LYS ALA GLU SER ARG          
  20 A  262  ARG ASP VAL LEU ALA SER ALA ALA LYS ILE VAL THR ASP          
  21 A  262  GLY LEU                                                      

>  <HET>
 SO4  A 301       5                                                       
 SO4  A 302       5                                                       
 SO4  A 303       5                                                       
 SO4  A 304       5                                                       
 SO4  A 305       5                                                       
 KJK  A 306      28                                                       
 EDO  A 307       4                                                       
 EDO  A 308       4                                                       
 PGE  A 309      10                                                       

>  <HETNAM>
     SO4 SULFATE ION                                                      
     KJK (3~{R})-3-[2-[4-(2-AZANYLETHYLAMINO)                             
   2 KJK  CYCLOHEXYL]ETHANOYLAMINO]-2-OXIDANYL-3,4-DIHYDRO-1,2-           
   3 KJK  BENZOXABORININE-8-CARBOXYLIC ACID                               
     EDO 1,2-ETHANEDIOL                                                   
     PGE TRIETHYLENE GLYCOL                                               

>  <HETSYN>
     EDO ETHYLENE GLYCOL                                                  

>  <FORMUL>
   2  SO4    5(O4 S 2-)                                                   
   7  KJK    C19 H28 B N3 O5                                              
   8  EDO    2(C2 H6 O2)                                                  
  10  PGE    C6 H14 O4                                                    
  11  HOH   *261(H2 O)                                                    

>  <HELIX>
   1 AA1 ALA A   28  GLY A   42  1                                  15    
   2 AA2 CYS A   69  THR A   71  5                                   3    
   3 AA3 SER A   72  GLU A   85  1                                  14    
   4 AA4 ASN A   89  ASN A   92  5                                   4    
   5 AA5 LYS A   98  LEU A  102  5                                   5    
   6 AA6 ILE A  108  HIS A  112  5                                   5    
   7 AA7 LEU A  119  SER A  130  1                                  12    
   8 AA8 ASP A  131  GLY A  143  1                                  13    
   9 AA9 GLY A  144  LEU A  155  1                                  12    
  10 AB1 PRO A  167  THR A  171  5                                   5    
  11 AB2 SER A  182  LEU A  195  1                                  14    
  12 AB3 GLY A  200  GLY A  213  1                                  14    
  13 AB4 SER A  220  LEU A  225  5                                   6    
  14 AB5 ARG A  273  ASP A  286  1                                  14    

>  <SHEET>
   1 AA1 5 SER A  56  TYR A  60  0                                        
   2 AA1 5 ARG A  44  ASN A  51 -1  N  LEU A  49   O  ILE A  58           
   3 AA1 5 LEU A 257  THR A 264 -1  O  THR A 264   N  ARG A  44           
   4 AA1 5 THR A 242  TRP A 250 -1  N  ASP A 245   O  THR A 261           
   5 AA1 5 VAL A 230  GLY A 238 -1  N  VAL A 230   O  TRP A 250           
   1 AA2 2 PHE A  66  ALA A  67  0                                        
   2 AA2 2 THR A 180  THR A 181 -1  O  THR A 181   N  PHE A  66           
   1 AA3 2 ARG A  94  GLU A  96  0                                        
   2 AA3 2 THR A 116  SER A 118 -1  O  MET A 117   N  VAL A  95           

>  <LINK>
       OG  SER A  70                 B07 KJK A 306     1555   1555  1.51  
       S   SO4 A 301                 O3  SO4 A 302     1555   3554  1.48  
       S   SO4 A 301                 O1  SO4 A 302     1555   3554  1.45  
       S   SO4 A 301                 O2  SO4 A 302     1555   3554  1.46  
       S   SO4 A 301                 O4  SO4 A 302     1555   3554  1.47  
       O1  SO4 A 301                 S   SO4 A 302     1555   3554  1.48  
       O2  SO4 A 301                 S   SO4 A 302     1555   3554  1.47  
       O3  SO4 A 301                 S   SO4 A 302     1555   3554  1.46  
       O4  SO4 A 301                 S   SO4 A 302     1555   3554  1.45  

>  <CISPEP>
   1 GLU A  166    PRO A  167          0         5.43                     

>  <SITE>
   1 AC1  8 LYS A  82  ARG A 164  THR A 168  ARG A 178                    
   2 AC1  8 HOH A 450  HOH A 524  HOH A 558  HOH A 608                    
   1 AC2  9 LYS A  98  LYS A  99  SER A 100  ASN A 114                    
   2 AC2  9 HOH A 418  HOH A 445  HOH A 516  HOH A 527                    
   3 AC2  9 HOH A 555                                                     
   1 AC3  4 SER A 237  SER A 272  ARG A 274  KJK A 306                    
   1 AC4 15 CYS A  69  SER A  70  ASN A 104  TYR A 105                    
   2 AC4 15 SER A 130  ASN A 132  ASN A 170  LYS A 234                    
   3 AC4 15 THR A 235  GLY A 236  SER A 237  ARG A 274                    
   4 AC4 15 SO4 A 305  HOH A 442  HOH A 512                               
   1 AC5  4 ALA A 223  LEU A 225  PRO A 266  LYS A 282                    
   1 AC6  5 ARG A  44  ARG A  65  GLY A 175  ASP A 176                    
   2 AC6  5 HOH A 596                                                     
   1 AC7  4 VAL A 208  THR A 209  LYS A 212  VAL A 230                    
   1 AC8  6 ARG A 153  LYS A 197  HOH A 429  HOH A 555                    
   2 AC8  6 HOH A 586  HOH A 604                                          
   1 AC9  6 ARG A 153  LYS A 197  HOH A 429  HOH A 555                    
   2 AC9  6 HOH A 586  HOH A 604                                          
   1 AD1  6 ARG A 153  LYS A 197  HOH A 429  HOH A 555                    
   2 AD1  6 HOH A 586  HOH A 604                                          
   1 AD2  6 ARG A 153  LYS A 197  HOH A 429  HOH A 555                    
   2 AD2  6 HOH A 586  HOH A 604                                          
   1 AD3  6 ARG A 153  LYS A 197  HOH A 429  HOH A 555                    
   2 AD3  6 HOH A 586  HOH A 604                                          
   1 AD4  6 ARG A 153  LYS A 197  HOH A 429  HOH A 555                    
   2 AD4  6 HOH A 586  HOH A 604                                          
   1 AD5  6 ARG A 153  LYS A 197  HOH A 429  HOH A 555                    
   2 AD5  6 HOH A 586  HOH A 604                                          
   1 AD6  6 ARG A 153  LYS A 197  HOH A 429  HOH A 555                    
   2 AD6  6 HOH A 586  HOH A 604                                          

>  <ORIGX1>
      1.000000  0.000000  0.000000        0.00000                         

>  <ORIGX2>
      0.000000  1.000000  0.000000        0.00000                         

>  <ORIGX3>
      0.000000  0.000000  1.000000        0.00000                         

>  <SCALE1>
      0.022442  0.000000  0.000000        0.00000                         

>  <SCALE2>
      0.000000  0.021873  0.000000        0.00000                         

>  <SCALE3>
      0.000000  0.000000  0.008531        0.00000                         

>  <ANISOU>
  340  N   SER A  70      674    699    387    103    -12     35       N  
  341  CA  SER A  70      673    689    432     71    -61    -29       C  
  342  C   SER A  70      585    701    392     80     86    -38       C  
  343  O   SER A  70      593    754    449     87    -31     15       O  
  344  CB  SER A  70      801    733    459     78    -60     51       C  
  345  OG  SER A  70      814    714    554      7     37    -15       O  
 2072  B07 KJK A 306      848    729    585     48     27     64       B  
 2073  C10 KJK A 306      955    752    530    -20     13     72       C  
 2074  C11 KJK A 306     1107    857    614    -65     13     22       C  
 2075  C12 KJK A 306     1004   1136    711    134      8    -93       C  
 2076  C15 KJK A 306     1564   1080    655    -35    297     56       C  
 2077  C16 KJK A 306     1756   1125    759    158    445    215       C  
 2078  C17 KJK A 306     1191    971    758     17    212    136       C  
 2079  C18 KJK A 306     1057    819    567      4     44     -2       C  
 2080  C19 KJK A 306      934    752    671     83     13      8       C  
 2081  C20 KJK A 306      954    831    432     83    -68     53       C  
 2082  C22 KJK A 306     1168    740    655     35   -134     10       C  
 2083  C23 KJK A 306     1196    940    885     58   -248    139       C  
 2084  C24 KJK A 306     2168   1388    715   -101   -329    242       C  
 2085  C25 KJK A 306     2708   2103   1094   -253   -781    402       C  
 2086  C26 KJK A 306     4648   1763   1060   -231   -639     14       C  
 2087  C27 KJK A 306     3869   2225    891    682    255    578       C  
 2088  C29 KJK A 306     5483   3466   1650  -1033     16    648       C  
 2089  C30 KJK A 306     8323   5448   1120  -1677    127    607       C  
 2090  C32 KJK A 306     2768   2010   1376    339    327    493       C  
 2091  C33 KJK A 306     2205   1627    958    159    197    422       C  
 2092  N21 KJK A 306      906    671    683    -40   -205     45       N  
 2093  N28 KJK A 306     5329   3430   1101    774    532    625       N  
 2094  N31 KJK A 306     7239   7570   2997  -2202    298    768       N  
 2095  O08 KJK A 306      745    732    743     -8    -47    -30       O  
 2096  O09 KJK A 306      909    783    578     50    133    128       O  
 2097  O13 KJK A 306     1339   1053    920    130    191    -19       O  
 2098  O14 KJK A 306     2331   1142   1279      6   -656   -126       O  
 2099  O34 KJK A 306     1172    789    820    135   -214     76       O  

>  <MASTER>
      352    0    9   14    9    0   30    6 2289    1   72   21          

$$$$
