start_structures/Ligand_Substrate/Ligand_Complex_Stripped/KL8_6YPD.pdb
 OpenBabel08222315213D

 28 30  0  0  1  0  0  0  0  0999 V2000
  -14.0890   10.1500   25.9160 N   0  0  0  0  0  0  0  0  0  0  0  0
  -15.3970    9.5840   26.2440 C   0  0  2  0  0  0  0  0  0  0  0  0
  -15.5080    8.0480   26.0990 C   0  0  0  0  0  0  0  0  0  0  0  0
  -16.5110    7.4720   26.5220 O   0  0  0  0  0  0  0  0  0  0  0  0
  -16.4650   10.3140   25.4110 C   0  0  0  0  0  0  0  0  0  0  0  0
  -16.5610   11.7070   25.7380 O   0  0  0  0  0  0  0  0  0  0  0  0
  -16.1500   12.6540   24.7970 B   0  0  1  0  0  0  0  0  0  0  0  0
  -15.9500   14.1640   25.2270 C   0  0  1  0  0  0  0  0  0  0  0  0
  -15.2420   16.3850   27.0070 C   0  0  0  0  0  0  0  0  0  0  0  0
  -13.8570   16.8950   27.4240 C   0  0  0  0  0  0  0  0  0  0  0  0
  -12.6900   16.2690   26.9960 C   0  0  0  0  0  0  0  0  0  0  0  0
  -11.4540   16.7810   27.3860 C   0  0  0  0  0  0  0  0  0  0  0  0
  -11.3840   17.9280   28.2000 C   0  0  0  0  0  0  0  0  0  0  0  0
  -12.5510   18.5610   28.6190 C   0  0  0  0  0  0  0  0  0  0  0  0
  -13.7910   18.0500   28.2260 C   0  0  0  0  0  0  0  0  0  0  0  0
  -17.1380   15.0330   24.8630 C   0  0  0  0  0  0  0  0  0  0  0  0
  -17.2750   14.8700   23.3170 C   0  0  0  0  0  0  0  0  0  0  0  0
  -17.2000   13.5630   22.8490 C   0  0  0  0  0  0  0  0  0  0  0  0
  -17.2890   13.2880   21.4680 C   0  0  0  0  0  0  0  0  0  0  0  0
  -17.2270   11.8150   21.0080 C   0  0  0  0  0  0  0  0  0  0  0  0
  -17.4290   14.3420   20.5700 C   0  0  0  0  0  0  0  0  0  0  0  0
  -17.4820   15.6650   21.0460 C   0  0  0  0  0  0  0  0  0  0  0  0
  -17.3960   15.9320   22.4370 C   0  0  0  0  0  0  0  0  0  0  0  0
  -14.9160   12.3530   24.3150 O   0  0  0  0  0  0  0  0  0  0  0  0
  -18.0850   10.9980   21.4380 O   0  0  0  0  0  0  0  0  0  0  0  0
  -16.3570   11.4610   20.2190 O   0  0  0  0  0  0  0  0  0  0  0  0
  -17.0670   12.4760   23.7950 O   0  0  0  0  0  0  0  0  0  0  0  0
  -15.4560   14.5400   26.9360 S   0  0  0  0  0  0  0  0  0  0  0  0
  2  1  1  6  0  0  0
  3  2  1  0  0  0  0
  3  4  2  0  0  0  0
  5  6  1  0  0  0  0
  5  2  1  0  0  0  0
  6  7  1  0  0  0  0
  7  8  1  0  0  0  0
  7 24  1  6  0  0  0
  7 27  1  0  0  0  0
  8 16  1  0  0  0  0
  8 28  1  1  0  0  0
  9 10  1  0  0  0  0
  9 28  1  0  0  0  0
 10 11  2  0  0  0  0
 10 15  1  0  0  0  0
 11 12  1  0  0  0  0
 12 13  2  0  0  0  0
 13 14  1  0  0  0  0
 14 15  2  0  0  0  0
 16 17  1  0  0  0  0
 17 18  2  0  0  0  0
 17 23  1  0  0  0  0
 18 19  1  0  0  0  0
 18 27  1  0  0  0  0
 19 20  1  0  0  0  0
 19 21  2  0  0  0  0
 20 25  2  0  0  0  0
 20 26  1  0  0  0  0
 21 22  1  0  0  0  0
 22 23  2  0  0  0  0
M  END
>  <HEADER>
    HYDROLASE                               15-APR-20   6YPD              

>  <TITLE>
    CRYSTAL STRUCTURE OF AMPC FROM E. COLI WITH CYCLIC BORONATE 3 (CB3 /  
   2 APC308)                                                              

>  <COMPND>
    MOL_ID: 1;                                                            
   2 MOLECULE: BETA-LACTAMASE;                                            
   3 CHAIN: A;                                                            
   4 SYNONYM: CEPHALOSPORINASE;                                           
   5 EC: 3.5.2.6;                                                         
   6 ENGINEERED: YES                                                      

>  <SOURCE>
    MOL_ID: 1;                                                            
   2 ORGANISM_SCIENTIFIC: ESCHERICHIA COLI K-12;                          
   3 ORGANISM_TAXID: 83333;                                               
   4 GENE: AMPC, AMPA, B4150, JW4111;                                     
   5 EXPRESSION_SYSTEM: ESCHERICHIA COLI STR. K-12 SUBSTR. W3110;         
   6 EXPRESSION_SYSTEM_TAXID: 316407                                      

>  <KEYWDS>
    BETA LACTAMASE, ANTIBIOTIC RESISTANCE, BICYCLIC BORONATE, HYDROLASE   

>  <EXPDTA>
    X-RAY DIFFRACTION                                                     

>  <AUTHOR>
    P.A.LANG,J.BREM,C.J.SCHOFIELD                                         

>  <REVDAT>
   3   30-SEP-20 6YPD    1       JRNL                                     
   2   01-JUL-20 6YPD    1       JRNL                                     
   1   24-JUN-20 6YPD    0                                                

>  <JRNL>
      AUTH   P.A.LANG,A.PARKOVA,T.M.LEISSING,K.CALVOPINA,R.CAIN,A.KRAJNC, 
      AUTH 2 T.D.PANDUWAWALA,J.PHILIPPE,C.W.G.FISHWICK,P.TRAPENCIERIS,    
      AUTH 3 M.G.P.PAGE,C.J.SCHOFIELD,J.BREM                              
      TITL   BICYCLIC BORONATES AS POTENT INHIBITORS OF AMPC, THE CLASS C 
      TITL 2 BETA-LACTAMASE FROM ESCHERICHIA COLI .                       
      REF    BIOMOLECULES                  V.  10       2020              
      REFN                   ESSN 2218-273X                               
      PMID   32545682                                                     
      DOI    10.3390/BIOM10060899                                         

>  <REMARK>
   2                                                                      
   2 RESOLUTION.    1.60 ANGSTROMS.                                       
   3                                                                      
   3 REFINEMENT.                                                          
   3   PROGRAM     : PHENIX 1.15.2_3472                                   
   3   AUTHORS     : PAUL ADAMS,PAVEL AFONINE,VINCENT CHEN,IAN            
   3               : DAVIS,KRESHNA GOPAL,RALF GROSSE-KUNSTLEVE,           
   3               : LI-WEI HUNG,ROBERT IMMORMINO,TOM IOERGER,            
   3               : AIRLIE MCCOY,ERIK MCKEE,NIGEL MORIARTY,              
   3               : REETAL PAI,RANDY READ,JANE RICHARDSON,               
   3               : DAVID RICHARDSON,TOD ROMO,JIM SACCHETTINI,           
   3               : NICHOLAS SAUTER,JACOB SMITH,LAURENT                  
   3               : STORONI,TOM TERWILLIGER,PETER ZWART                  
   3                                                                      
   3    REFINEMENT TARGET : NULL                                          
   3                                                                      
   3  DATA USED IN REFINEMENT.                                            
   3   RESOLUTION RANGE HIGH (ANGSTROMS) : 1.60                           
   3   RESOLUTION RANGE LOW  (ANGSTROMS) : 49.13                          
   3   MIN(FOBS/SIGMA_FOBS)              : 1.330                          
   3   COMPLETENESS FOR RANGE        (%) : 99.6                           
   3   NUMBER OF REFLECTIONS             : 60656                          
   3                                                                      
   3  FIT TO DATA USED IN REFINEMENT.                                     
   3   R VALUE     (WORKING + TEST SET) : 0.172                           
   3   R VALUE            (WORKING SET) : 0.171                           
   3   FREE R VALUE                     : 0.187                           
   3   FREE R VALUE TEST SET SIZE   (%) : 3.280                           
   3   FREE R VALUE TEST SET COUNT      : 1990                            
   3                                                                      
   3  FIT TO DATA USED IN REFINEMENT (IN BINS).                           
   3   BIN  RESOLUTION RANGE  COMPL.    NWORK NFREE   RWORK  RFREE        
   3     1 49.1340 -  3.8531    1.00     4541   154  0.1549 0.1708        
   3     2  3.8531 -  3.0585    1.00     4310   147  0.1576 0.1513        
   3     3  3.0585 -  2.6719    1.00     4259   145  0.1549 0.1761        
   3     4  2.6719 -  2.4276    1.00     4214   143  0.1555 0.1850        
   3     5  2.4276 -  2.2536    1.00     4179   142  0.1692 0.2010        
   3     6  2.2536 -  2.1207    0.99     4166   142  0.1868 0.1979        
   3     7  2.1207 -  2.0145    1.00     4136   138  0.1937 0.2030        
   3     8  2.0145 -  1.9268    0.99     4115   138  0.1896 0.2061        
   3     9  1.9268 -  1.8527    0.98     4079   139  0.2659 0.2779        
   3    10  1.8527 -  1.7887    1.00     4158   141  0.1870 0.2317        
   3    11  1.7887 -  1.7328    1.00     4125   140  0.1974 0.2263        
   3    12  1.7328 -  1.6833    1.00     4128   140  0.2034 0.2508        
   3    13  1.6833 -  1.6389    1.00     4129   141  0.2115 0.2592        
   3    14  1.6389 -  1.6000    1.00     4127   140  0.2392 0.2828        
   3                                                                      
   3  BULK SOLVENT MODELLING.                                             
   3   METHOD USED        : NULL                                          
   3   SOLVENT RADIUS     : 1.11                                          
   3   SHRINKAGE RADIUS   : 0.90                                          
   3   K_SOL              : NULL                                          
   3   B_SOL              : NULL                                          
   3                                                                      
   3  ERROR ESTIMATES.                                                    
   3   COORDINATE ERROR (MAXIMUM-LIKELIHOOD BASED)     : 0.150            
   3   PHASE ERROR (DEGREES, MAXIMUM-LIKELIHOOD BASED) : 19.800           
   3                                                                      
   3  B VALUES.                                                           
   3   FROM WILSON PLOT           (A**2) : NULL                           
   3   MEAN B VALUE      (OVERALL, A**2) : 31.01                          
   3   OVERALL ANISOTROPIC B VALUE.                                       
   3    B11 (A**2) : NULL                                                 
   3    B22 (A**2) : NULL                                                 
   3    B33 (A**2) : NULL                                                 
   3    B12 (A**2) : NULL                                                 
   3    B13 (A**2) : NULL                                                 
   3    B23 (A**2) : NULL                                                 
   3                                                                      
   3  TWINNING INFORMATION.                                               
   3   FRACTION: NULL                                                     
   3   OPERATOR: NULL                                                     
   3                                                                      
   3  DEVIATIONS FROM IDEAL VALUES.                                       
   3                 RMSD          COUNT                                  
   3   BOND      :   NULL           NULL                                  
   3   ANGLE     :   NULL           NULL                                  
   3   CHIRALITY :   NULL           NULL                                  
   3   PLANARITY :   NULL           NULL                                  
   3   DIHEDRAL  :   NULL           NULL                                  
   3                                                                      
   3  TLS DETAILS                                                         
   3   NUMBER OF TLS GROUPS  : 6                                          
   3   TLS GROUP : 1                                                      
   3    SELECTION: CHAIN 'A' AND (RESID 4 THROUGH 23 )                    
   3    ORIGIN FOR THE GROUP (A):  -3.1991  -0.4765   6.4347              
   3    T TENSOR                                                          
   3      T11:   0.2107 T22:   0.2439                                     
   3      T33:   0.1926 T12:   0.0119                                     
   3      T13:   0.0183 T23:   0.0054                                     
   3    L TENSOR                                                          
   3      L11:   2.6720 L22:   6.6840                                     
   3      L33:   3.1456 L12:  -0.8965                                     
   3      L13:  -1.3547 L23:   1.3878                                     
   3    S TENSOR                                                          
   3      S11:   0.0623 S12:   0.1534 S13:  -0.0423                       
   3      S21:  -0.3345 S22:  -0.1838 S23:  -0.1663                       
   3      S31:   0.0962 S32:  -0.0972 S33:   0.1150                       
   3   TLS GROUP : 2                                                      
   3    SELECTION: CHAIN 'A' AND (RESID 24 THROUGH 79 )                   
   3    ORIGIN FOR THE GROUP (A):  -5.3129   2.8558  23.0206              
   3    T TENSOR                                                          
   3      T11:   0.1665 T22:   0.1372                                     
   3      T33:   0.1339 T12:   0.0013                                     
   3      T13:  -0.0275 T23:   0.0089                                     
   3    L TENSOR                                                          
   3      L11:   3.0720 L22:   1.4098                                     
   3      L33:   2.2141 L12:   0.8659                                     
   3      L13:  -2.1199 L23:  -0.5618                                     
   3    S TENSOR                                                          
   3      S11:   0.1235 S12:  -0.2061 S13:   0.1134                       
   3      S21:   0.1224 S22:  -0.0216 S23:  -0.0951                       
   3      S31:  -0.1125 S32:   0.1507 S33:  -0.1169                       
   3   TLS GROUP : 3                                                      
   3    SELECTION: CHAIN 'A' AND (RESID 80 THROUGH 98 )                   
   3    ORIGIN FOR THE GROUP (A): -30.5287   8.3709  43.7818              
   3    T TENSOR                                                          
   3      T11:   0.3969 T22:   0.2862                                     
   3      T33:   0.2849 T12:   0.0474                                     
   3      T13:   0.1664 T23:  -0.0165                                     
   3    L TENSOR                                                          
   3      L11:   1.3691 L22:   3.4195                                     
   3      L33:   0.5930 L12:  -0.0992                                     
   3      L13:   0.5950 L23:  -0.8965                                     
   3    S TENSOR                                                          
   3      S11:   0.1357 S12:  -0.2499 S13:   0.2701                       
   3      S21:   0.5172 S22:  -0.0152 S23:   0.3252                       
   3      S31:  -0.2855 S32:  -0.2705 S33:  -0.1057                       
   3   TLS GROUP : 4                                                      
   3    SELECTION: CHAIN 'A' AND (RESID 99 THROUGH 162 )                  
   3    ORIGIN FOR THE GROUP (A): -27.7984  16.5618  34.1821              
   3    T TENSOR                                                          
   3      T11:   0.3901 T22:   0.2207                                     
   3      T33:   0.2992 T12:   0.0738                                     
   3      T13:   0.1626 T23:   0.0089                                     
   3    L TENSOR                                                          
   3      L11:   1.7873 L22:   2.4184                                     
   3      L33:   3.5465 L12:  -0.3443                                     
   3      L13:  -0.6543 L23:   0.3689                                     
   3    S TENSOR                                                          
   3      S11:   0.2720 S12:  -0.1154 S13:   0.5063                       
   3      S21:   0.3526 S22:   0.0578 S23:   0.0906                       
   3      S31:  -0.7504 S32:  -0.2787 S33:  -0.1899                       
   3   TLS GROUP : 5                                                      
   3    SELECTION: CHAIN 'A' AND (RESID 163 THROUGH 275 )                 
   3    ORIGIN FOR THE GROUP (A): -13.5715   1.6327  31.0669              
   3    T TENSOR                                                          
   3      T11:   0.2319 T22:   0.1734                                     
   3      T33:   0.1555 T12:  -0.0002                                     
   3      T13:   0.0076 T23:   0.0040                                     
   3    L TENSOR                                                          
   3      L11:   2.1937 L22:   1.0278                                     
   3      L33:   1.2889 L12:   0.6703                                     
   3      L13:  -0.9522 L23:  -0.1399                                     
   3    S TENSOR                                                          
   3      S11:   0.0363 S12:  -0.1577 S13:   0.0181                       
   3      S21:   0.1915 S22:  -0.0209 S23:  -0.0370                       
   3      S31:  -0.0743 S32:   0.0809 S33:  -0.0140                       
   3   TLS GROUP : 6                                                      
   3    SELECTION: CHAIN 'A' AND (RESID 276 THROUGH 362 )                 
   3    ORIGIN FOR THE GROUP (A): -18.4717   1.8820  15.6950              
   3    T TENSOR                                                          
   3      T11:   0.1909 T22:   0.2109                                     
   3      T33:   0.1828 T12:   0.0025                                     
   3      T13:   0.0021 T23:   0.0078                                     
   3    L TENSOR                                                          
   3      L11:   1.6383 L22:   0.6974                                     
   3      L33:   1.6285 L12:  -0.0809                                     
   3      L13:  -0.8477 L23:  -0.3102                                     
   3    S TENSOR                                                          
   3      S11:  -0.0057 S12:   0.2294 S13:   0.0106                       
   3      S21:   0.0008 S22:   0.0431 S23:   0.1326                       
   3      S31:  -0.0088 S32:  -0.2732 S33:  -0.0382                       
   3                                                                      
   3  NCS DETAILS                                                         
   3   NUMBER OF NCS GROUPS : NULL                                        
   3                                                                      
   3  OTHER REFINEMENT REMARKS: NULL                                      
   4                                                                      
   4 6YPD COMPLIES WITH FORMAT V. 3.30, 13-JUL-11                         
 100                                                                      
 100 THIS ENTRY HAS BEEN PROCESSED BY PDBE ON 16-APR-20.                  
 100 THE DEPOSITION ID IS D_1292108044.                                   
 200                                                                      
 200 EXPERIMENTAL DETAILS                                                 
 200  EXPERIMENT TYPE                : X-RAY DIFFRACTION                  
 200  DATE OF DATA COLLECTION        : 08-MAY-19                          
 200  TEMPERATURE           (KELVIN) : 100                                
 200  PH                             : 6.0                                
 200  NUMBER OF CRYSTALS USED        : 1                                  
 200                                                                      
 200  SYNCHROTRON              (Y/N) : Y                                  
 200  RADIATION SOURCE               : DIAMOND                            
 200  BEAMLINE                       : I03                                
 200  X-RAY GENERATOR MODEL          : NULL                               
 200  MONOCHROMATIC OR LAUE    (M/L) : M                                  
 200  WAVELENGTH OR RANGE        (A) : 0.9762                             
 200  MONOCHROMATOR                  : NULL                               
 200  OPTICS                         : NULL                               
 200                                                                      
 200  DETECTOR TYPE                  : PIXEL                              
 200  DETECTOR MANUFACTURER          : DECTRIS EIGER2 XE 16M              
 200  INTENSITY-INTEGRATION SOFTWARE : DIALS                              
 200  DATA SCALING SOFTWARE          : AIMLESS 0.7.4                      
 200                                                                      
 200  NUMBER OF UNIQUE REFLECTIONS   : 60941                              
 200  RESOLUTION RANGE HIGH      (A) : 1.599                              
 200  RESOLUTION RANGE LOW       (A) : 138.970                            
 200  REJECTION CRITERIA  (SIGMA(I)) : NULL                               
 200                                                                      
 200 OVERALL.                                                             
 200  COMPLETENESS FOR RANGE     (%) : 100.0                              
 200  DATA REDUNDANCY                : 77.30                              
 200  R MERGE                    (I) : 0.16500                            
 200  R SYM                      (I) : NULL                               
 200  <I/SIGMA(I)> FOR THE DATA SET  : 22.1000                            
 200                                                                      
 200 IN THE HIGHEST RESOLUTION SHELL.                                     
 200  HIGHEST RESOLUTION SHELL, RANGE HIGH (A) : 1.60                     
 200  HIGHEST RESOLUTION SHELL, RANGE LOW  (A) : 1.63                     
 200  COMPLETENESS FOR SHELL     (%) : 99.9                               
 200  DATA REDUNDANCY IN SHELL       : 67.40                              
 200  R MERGE FOR SHELL          (I) : 4.50400                            
 200  R SYM FOR SHELL            (I) : NULL                               
 200  <I/SIGMA(I)> FOR SHELL         : 1.300                              
 200                                                                      
 200 DIFFRACTION PROTOCOL: SINGLE WAVELENGTH                              
 200 METHOD USED TO DETERMINE THE STRUCTURE: MOLECULAR REPLACEMENT        
 200 SOFTWARE USED: PHASER 2.8.1                                          
 200 STARTING MODEL: 1IEM                                                 
 200                                                                      
 200 REMARK: NULL                                                         
 280                                                                      
 280 CRYSTAL                                                              
 280 SOLVENT CONTENT, VS   (%): 56.48                                     
 280 MATTHEWS COEFFICIENT, VM (ANGSTROMS**3/DA): 2.83                     
 280                                                                      
 280 CRYSTALLIZATION CONDITIONS: 25% (W/V) PEG6000, 0.01 M ZNCL2, 0.1 M   
 280  MES PH 6.0, VAPOR DIFFUSION, SITTING DROP, TEMPERATURE 298K         
 290                                                                      
 290 CRYSTALLOGRAPHIC SYMMETRY                                            
 290 SYMMETRY OPERATORS FOR SPACE GROUP: P 43 3 2                         
 290                                                                      
 290      SYMOP   SYMMETRY                                                
 290     NNNMMM   OPERATOR                                                
 290       1555   X,Y,Z                                                   
 290       2555   -X+1/2,-Y,Z+1/2                                         
 290       3555   -X,Y+1/2,-Z+1/2                                         
 290       4555   X+1/2,-Y+1/2,-Z                                         
 290       5555   Z,X,Y                                                   
 290       6555   Z+1/2,-X+1/2,-Y                                         
 290       7555   -Z+1/2,-X,Y+1/2                                         
 290       8555   -Z,X+1/2,-Y+1/2                                         
 290       9555   Y,Z,X                                                   
 290      10555   -Y,Z+1/2,-X+1/2                                         
 290      11555   Y+1/2,-Z+1/2,-X                                         
 290      12555   -Y+1/2,-Z,X+1/2                                         
 290      13555   Y+1/4,X+3/4,-Z+3/4                                      
 290      14555   -Y+1/4,-X+1/4,-Z+1/4                                    
 290      15555   Y+3/4,-X+3/4,Z+1/4                                      
 290      16555   -Y+3/4,X+1/4,Z+3/4                                      
 290      17555   X+1/4,Z+3/4,-Y+3/4                                      
 290      18555   -X+3/4,Z+1/4,Y+3/4                                      
 290      19555   -X+1/4,-Z+1/4,-Y+1/4                                    
 290      20555   X+3/4,-Z+3/4,Y+1/4                                      
 290      21555   Z+1/4,Y+3/4,-X+3/4                                      
 290      22555   Z+3/4,-Y+3/4,X+1/4                                      
 290      23555   -Z+3/4,Y+1/4,X+3/4                                      
 290      24555   -Z+1/4,-Y+1/4,-X+1/4                                    
 290                                                                      
 290     WHERE NNN -> OPERATOR NUMBER                                     
 290           MMM -> TRANSLATION VECTOR                                  
 290                                                                      
 290 CRYSTALLOGRAPHIC SYMMETRY TRANSFORMATIONS                            
 290 THE FOLLOWING TRANSFORMATIONS OPERATE ON THE ATOM/HETATM             
 290 RECORDS IN THIS ENTRY TO PRODUCE CRYSTALLOGRAPHICALLY                
 290 RELATED MOLECULES.                                                   
 290   SMTRY1   1  1.000000  0.000000  0.000000        0.00000            
 290   SMTRY2   1  0.000000  1.000000  0.000000        0.00000            
 290   SMTRY3   1  0.000000  0.000000  1.000000        0.00000            
 290   SMTRY1   2 -1.000000  0.000000  0.000000       69.48550            
 290   SMTRY2   2  0.000000 -1.000000  0.000000        0.00000            
 290   SMTRY3   2  0.000000  0.000000  1.000000       69.48550            
 290   SMTRY1   3 -1.000000  0.000000  0.000000        0.00000            
 290   SMTRY2   3  0.000000  1.000000  0.000000       69.48550            
 290   SMTRY3   3  0.000000  0.000000 -1.000000       69.48550            
 290   SMTRY1   4  1.000000  0.000000  0.000000       69.48550            
 290   SMTRY2   4  0.000000 -1.000000  0.000000       69.48550            
 290   SMTRY3   4  0.000000  0.000000 -1.000000        0.00000            
 290   SMTRY1   5  0.000000  0.000000  1.000000        0.00000            
 290   SMTRY2   5  1.000000  0.000000  0.000000        0.00000            
 290   SMTRY3   5  0.000000  1.000000  0.000000        0.00000            
 290   SMTRY1   6  0.000000  0.000000  1.000000       69.48550            
 290   SMTRY2   6 -1.000000  0.000000  0.000000       69.48550            
 290   SMTRY3   6  0.000000 -1.000000  0.000000        0.00000            
 290   SMTRY1   7  0.000000  0.000000 -1.000000       69.48550            
 290   SMTRY2   7 -1.000000  0.000000  0.000000        0.00000            
 290   SMTRY3   7  0.000000  1.000000  0.000000       69.48550            
 290   SMTRY1   8  0.000000  0.000000 -1.000000        0.00000            
 290   SMTRY2   8  1.000000  0.000000  0.000000       69.48550            
 290   SMTRY3   8  0.000000 -1.000000  0.000000       69.48550            
 290   SMTRY1   9  0.000000  1.000000  0.000000        0.00000            
 290   SMTRY2   9  0.000000  0.000000  1.000000        0.00000            
 290   SMTRY3   9  1.000000  0.000000  0.000000        0.00000            
 290   SMTRY1  10  0.000000 -1.000000  0.000000        0.00000            
 290   SMTRY2  10  0.000000  0.000000  1.000000       69.48550            
 290   SMTRY3  10 -1.000000  0.000000  0.000000       69.48550            
 290   SMTRY1  11  0.000000  1.000000  0.000000       69.48550            
 290   SMTRY2  11  0.000000  0.000000 -1.000000       69.48550            
 290   SMTRY3  11 -1.000000  0.000000  0.000000        0.00000            
 290   SMTRY1  12  0.000000 -1.000000  0.000000       69.48550            
 290   SMTRY2  12  0.000000  0.000000 -1.000000        0.00000            
 290   SMTRY3  12  1.000000  0.000000  0.000000       69.48550            
 290   SMTRY1  13  0.000000  1.000000  0.000000       34.74275            
 290   SMTRY2  13  1.000000  0.000000  0.000000      104.22825            
 290   SMTRY3  13  0.000000  0.000000 -1.000000      104.22825            
 290   SMTRY1  14  0.000000 -1.000000  0.000000       34.74275            
 290   SMTRY2  14 -1.000000  0.000000  0.000000       34.74275            
 290   SMTRY3  14  0.000000  0.000000 -1.000000       34.74275            
 290   SMTRY1  15  0.000000  1.000000  0.000000      104.22825            
 290   SMTRY2  15 -1.000000  0.000000  0.000000      104.22825            
 290   SMTRY3  15  0.000000  0.000000  1.000000       34.74275            
 290   SMTRY1  16  0.000000 -1.000000  0.000000      104.22825            
 290   SMTRY2  16  1.000000  0.000000  0.000000       34.74275            
 290   SMTRY3  16  0.000000  0.000000  1.000000      104.22825            
 290   SMTRY1  17  1.000000  0.000000  0.000000       34.74275            
 290   SMTRY2  17  0.000000  0.000000  1.000000      104.22825            
 290   SMTRY3  17  0.000000 -1.000000  0.000000      104.22825            
 290   SMTRY1  18 -1.000000  0.000000  0.000000      104.22825            
 290   SMTRY2  18  0.000000  0.000000  1.000000       34.74275            
 290   SMTRY3  18  0.000000  1.000000  0.000000      104.22825            
 290   SMTRY1  19 -1.000000  0.000000  0.000000       34.74275            
 290   SMTRY2  19  0.000000  0.000000 -1.000000       34.74275            
 290   SMTRY3  19  0.000000 -1.000000  0.000000       34.74275            
 290   SMTRY1  20  1.000000  0.000000  0.000000      104.22825            
 290   SMTRY2  20  0.000000  0.000000 -1.000000      104.22825            
 290   SMTRY3  20  0.000000  1.000000  0.000000       34.74275            
 290   SMTRY1  21  0.000000  0.000000  1.000000       34.74275            
 290   SMTRY2  21  0.000000  1.000000  0.000000      104.22825            
 290   SMTRY3  21 -1.000000  0.000000  0.000000      104.22825            
 290   SMTRY1  22  0.000000  0.000000  1.000000      104.22825            
 290   SMTRY2  22  0.000000 -1.000000  0.000000      104.22825            
 290   SMTRY3  22  1.000000  0.000000  0.000000       34.74275            
 290   SMTRY1  23  0.000000  0.000000 -1.000000      104.22825            
 290   SMTRY2  23  0.000000  1.000000  0.000000       34.74275            
 290   SMTRY3  23  1.000000  0.000000  0.000000      104.22825            
 290   SMTRY1  24  0.000000  0.000000 -1.000000       34.74275            
 290   SMTRY2  24  0.000000 -1.000000  0.000000       34.74275            
 290   SMTRY3  24 -1.000000  0.000000  0.000000       34.74275            
 290                                                                      
 290 REMARK: NULL                                                         
 300                                                                      
 300 BIOMOLECULE: 1                                                       
 300 SEE REMARK 350 FOR THE AUTHOR PROVIDED AND/OR PROGRAM                
 300 GENERATED ASSEMBLY INFORMATION FOR THE STRUCTURE IN                  
 300 THIS ENTRY. THE REMARK MAY ALSO PROVIDE INFORMATION ON               
 300 BURIED SURFACE AREA.                                                 
 350                                                                      
 350 COORDINATES FOR A COMPLETE MULTIMER REPRESENTING THE KNOWN           
 350 BIOLOGICALLY SIGNIFICANT OLIGOMERIZATION STATE OF THE                
 350 MOLECULE CAN BE GENERATED BY APPLYING BIOMT TRANSFORMATIONS          
 350 GIVEN BELOW.  BOTH NON-CRYSTALLOGRAPHIC AND                          
 350 CRYSTALLOGRAPHIC OPERATIONS ARE GIVEN.                               
 350                                                                      
 350 BIOMOLECULE: 1                                                       
 350 AUTHOR DETERMINED BIOLOGICAL UNIT: MONOMERIC                         
 350 SOFTWARE DETERMINED QUATERNARY STRUCTURE: MONOMERIC                  
 350 SOFTWARE USED: PISA                                                  
 350 TOTAL BURIED SURFACE AREA: 1150 ANGSTROM**2                          
 350 SURFACE AREA OF THE COMPLEX: 14150 ANGSTROM**2                       
 350 CHANGE IN SOLVENT FREE ENERGY: -30.0 KCAL/MOL                        
 350 APPLY THE FOLLOWING TO CHAINS: A                                     
 350   BIOMT1   1  1.000000  0.000000  0.000000        0.00000            
 350   BIOMT2   1  0.000000  1.000000  0.000000        0.00000            
 350   BIOMT3   1  0.000000  0.000000  1.000000        0.00000            
 375                                                                      
 375 SPECIAL POSITION                                                     
 375 THE FOLLOWING ATOMS ARE FOUND TO BE WITHIN 0.15 ANGSTROMS            
 375 OF A SYMMETRY RELATED ATOM AND ARE ASSUMED TO BE ON SPECIAL          
 375 POSITIONS.                                                           
 375                                                                      
 375 ATOM RES CSSEQI                                                      
 375 CL    CL A 407  LIES ON A SPECIAL POSITION.                          
 375 ZN    ZN A 408  LIES ON A SPECIAL POSITION.                          
 375      HOH A 804  LIES ON A SPECIAL POSITION.                          
 470                                                                      
 470 MISSING ATOM                                                         
 470 THE FOLLOWING RESIDUES HAVE MISSING ATOMS (M=MODEL NUMBER;           
 470 RES=RESIDUE NAME; C=CHAIN IDENTIFIER; SSEQ=SEQUENCE NUMBER;          
 470 I=INSERTION CODE):                                                   
 470   M RES CSSEQI  ATOMS                                                
 470     GLN A   7    CD   OE1  NE2                                       
 470     TYR A  45    OH                                                  
 470     LYS A  51    CD   CE   NZ                                        
 470     LYS A  84    NZ                                                  
 470     LYS A  99    CG   CD   CE   NZ                                   
 470     LYS A 126    CD   CE   NZ                                        
 470     ARG A 133    CZ   NH1  NH2                                       
 470     LYS A 164    CE   NZ                                             
 470     GLN A 172    CD   OE1  NE2                                       
 470     LYS A 183    CE   NZ                                             
 470     ARG A 204    CZ   NH1  NH2                                       
 470     LYS A 207    CD   CE   NZ                                        
 470     LYS A 290    CG   CD   CE   NZ                                   
 500                                                                      
 500 GEOMETRY AND STEREOCHEMISTRY                                         
 500 SUBTOPIC: CLOSE CONTACTS IN SAME ASYMMETRIC UNIT                     
 500                                                                      
 500 THE FOLLOWING ATOMS ARE IN CLOSE CONTACT.                            
 500                                                                      
 500  ATM1  RES C  SSEQI   ATM2  RES C  SSEQI           DISTANCE          
 500   O    HOH A   686     O    HOH A   735              2.08            
 500   O    HOH A   757     O    HOH A   770              2.14            
 500   OG   SER A    64     O23  KL8 A   401              2.15            
 500                                                                      
 500 REMARK: NULL                                                         
 500                                                                      
 500 GEOMETRY AND STEREOCHEMISTRY                                         
 500 SUBTOPIC: TORSION ANGLES                                             
 500                                                                      
 500 TORSION ANGLES OUTSIDE THE EXPECTED RAMACHANDRAN REGIONS:            
 500 (M=MODEL NUMBER; RES=RESIDUE NAME; C=CHAIN IDENTIFIER;               
 500 SSEQ=SEQUENCE NUMBER; I=INSERTION CODE).                             
 500                                                                      
 500 STANDARD TABLE:                                                      
 500 FORMAT:(10X,I3,1X,A3,1X,A1,I4,A1,4X,F7.2,3X,F7.2)                    
 500                                                                      
 500 EXPECTED VALUES: GJ KLEYWEGT AND TA JONES (1996). PHI/PSI-           
 500 CHOLOGY: RAMACHANDRAN REVISITED. STRUCTURE 4, 1395 - 1400            
 500                                                                      
 500  M RES CSSEQI        PSI       PHI                                   
 500    SER A 154      -67.26    -91.54                                   
 500    VAL A 178      -58.96   -126.16                                   
 500    TYR A 221       19.49   -159.06                                   
 500    ALA A 307      124.70    -39.62                                   
 500    ASN A 341       41.77    -98.96                                   
 500                                                                      
 500 REMARK: NULL                                                         
 525                                                                      
 525 SOLVENT                                                              
 525                                                                      
 525 THE SOLVENT MOLECULES HAVE CHAIN IDENTIFIERS THAT                    
 525 INDICATE THE POLYMER CHAIN WITH WHICH THEY ARE MOST                  
 525 CLOSELY ASSOCIATED. THE REMARK LISTS ALL THE SOLVENT                 
 525 MOLECULES WHICH ARE MORE THAN 5A AWAY FROM THE                       
 525 NEAREST POLYMER CHAIN (M = MODEL NUMBER;                             
 525 RES=RESIDUE NAME; C=CHAIN IDENTIFIER; SSEQ=SEQUENCE                  
 525 NUMBER; I=INSERTION CODE):                                           
 525                                                                      
 525  M RES CSSEQI                                                        
 525    HOH A 856        DISTANCE =  6.11 ANGSTROMS                       
 620                                                                      
 620 METAL COORDINATION                                                   
 620 (M=MODEL NUMBER; RES=RESIDUE NAME; C=CHAIN IDENTIFIER;               
 620 SSEQ=SEQUENCE NUMBER; I=INSERTION CODE):                             
 620                                                                      
 620 COORDINATION ANGLES FOR:  M RES CSSEQI METAL                         
 620                              ZN A 408  ZN                            
 620 N RES CSSEQI ATOM                                                    
 620 1 HIS A  13   NE2                                                    
 620 2 HIS A  13   NE2   0.0                                              
 620 N                    1                                               
 800                                                                      
 800 SITE                                                                 
 800 SITE_IDENTIFIER: AC1                                                 
 800 EVIDENCE_CODE: SOFTWARE                                              
 800 SITE_DESCRIPTION: binding site for residue KL8 A 401                 
 800                                                                      
 800 SITE_IDENTIFIER: AC2                                                 
 800 EVIDENCE_CODE: SOFTWARE                                              
 800 SITE_DESCRIPTION: binding site for residue PEG A 402                 
 800                                                                      
 800 SITE_IDENTIFIER: AC3                                                 
 800 EVIDENCE_CODE: SOFTWARE                                              
 800 SITE_DESCRIPTION: binding site for residue DMS A 403                 
 800                                                                      
 800 SITE_IDENTIFIER: AC4                                                 
 800 EVIDENCE_CODE: SOFTWARE                                              
 800 SITE_DESCRIPTION: binding site for residue EDO A 404                 
 800                                                                      
 800 SITE_IDENTIFIER: AC5                                                 
 800 EVIDENCE_CODE: SOFTWARE                                              
 800 SITE_DESCRIPTION: binding site for residue PEG A 405                 
 800                                                                      
 800 SITE_IDENTIFIER: AC6                                                 
 800 EVIDENCE_CODE: SOFTWARE                                              
 800 SITE_DESCRIPTION: binding site for residue EDO A 406                 
 800                                                                      
 800 SITE_IDENTIFIER: AC7                                                 
 800 EVIDENCE_CODE: SOFTWARE                                              
 800 SITE_DESCRIPTION: binding site for residue CL A 407                  
 800                                                                      
 800 SITE_IDENTIFIER: AC8                                                 
 800 EVIDENCE_CODE: SOFTWARE                                              
 800 SITE_DESCRIPTION: binding site for residue ZN A 408                  

>  <DBREF>
 6YPD A    4   361  UNP    P00811   AMPC_ECOLI      20    377             

>  <SEQRES>
   1 A  358  ALA PRO GLN GLN ILE ASN ASP ILE VAL HIS ARG THR ILE          
   2 A  358  THR PRO LEU ILE GLU GLN GLN LYS ILE PRO GLY MET ALA          
   3 A  358  VAL ALA VAL ILE TYR GLN GLY LYS PRO TYR TYR PHE THR          
   4 A  358  TRP GLY TYR ALA ASP ILE ALA LYS LYS GLN PRO VAL THR          
   5 A  358  GLN GLN THR LEU PHE GLU LEU GLY SER VAL SER LYS THR          
   6 A  358  PHE THR GLY VAL LEU GLY GLY ASP ALA ILE ALA ARG GLY          
   7 A  358  GLU ILE LYS LEU SER ASP PRO THR THR LYS TYR TRP PRO          
   8 A  358  GLU LEU THR ALA LYS GLN TRP ASN GLY ILE THR LEU LEU          
   9 A  358  HIS LEU ALA THR TYR THR ALA GLY GLY LEU PRO LEU GLN          
  10 A  358  VAL PRO ASP GLU VAL LYS SER SER SER ASP LEU LEU ARG          
  11 A  358  PHE TYR GLN ASN TRP GLN PRO ALA TRP ALA PRO GLY THR          
  12 A  358  GLN ARG LEU TYR ALA ASN SER SER ILE GLY LEU PHE GLY          
  13 A  358  ALA LEU ALA VAL LYS PRO SER GLY LEU SER PHE GLU GLN          
  14 A  358  ALA MET GLN THR ARG VAL PHE GLN PRO LEU LYS LEU ASN          
  15 A  358  HIS THR TRP ILE ASN VAL PRO PRO ALA GLU GLU LYS ASN          
  16 A  358  TYR ALA TRP GLY TYR ARG GLU GLY LYS ALA VAL HIS VAL          
  17 A  358  SER PRO GLY ALA LEU ASP ALA GLU ALA TYR GLY VAL LYS          
  18 A  358  SER THR ILE GLU ASP MET ALA ARG TRP VAL GLN SER ASN          
  19 A  358  LEU LYS PRO LEU ASP ILE ASN GLU LYS THR LEU GLN GLN          
  20 A  358  GLY ILE GLN LEU ALA GLN SER ARG TYR TRP GLN THR GLY          
  21 A  358  ASP MET TYR GLN GLY LEU GLY TRP GLU MET LEU ASP TRP          
  22 A  358  PRO VAL ASN PRO ASP SER ILE ILE ASN GLY SER ASP ASN          
  23 A  358  LYS ILE ALA LEU ALA ALA ARG PRO VAL LYS ALA ILE THR          
  24 A  358  PRO PRO THR PRO ALA VAL ARG ALA SER TRP VAL HIS LYS          
  25 A  358  THR GLY ALA THR GLY GLY PHE GLY SER TYR VAL ALA PHE          
  26 A  358  ILE PRO GLU LYS GLU LEU GLY ILE VAL MET LEU ALA ASN          
  27 A  358  LYS ASN TYR PRO ASN PRO ALA ARG VAL ASP ALA ALA TRP          
  28 A  358  GLN ILE LEU ASN ALA LEU GLN                                  

>  <HET>
 KL8  A 401      22                                                       
 PEG  A 402       7                                                       
 DMS  A 403       4                                                       
 EDO  A 404       4                                                       
 PEG  A 405       7                                                       
 EDO  A 406       4                                                       
  CL  A 407       1                                                       
  ZN  A 408       1                                                       

>  <HETNAM>
     KL8 (3~{S})-2,2-BIS(OXIDANYL)-3-(PHENYLMETHYLSULFANYL)-3,4-          
   2 KL8  DIHYDRO-1,2-BENZOXABORININ-2-IUM-8-CARBOXYLIC ACID              
     PEG DI(HYDROXYETHYL)ETHER                                            
     DMS DIMETHYL SULFOXIDE                                               
     EDO 1,2-ETHANEDIOL                                                   
      CL CHLORIDE ION                                                     
      ZN ZINC ION                                                         

>  <HETSYN>
     EDO ETHYLENE GLYCOL                                                  

>  <FORMUL>
   2  KL8    C16 H16 B O5 S 1-                                            
   3  PEG    2(C4 H10 O3)                                                 
   4  DMS    C2 H6 O S                                                    
   5  EDO    2(C2 H6 O2)                                                  
   8   CL    CL 1-                                                        
   9   ZN    ZN 2+                                                        
  10  HOH   *356(H2 O)                                                    

>  <HELIX>
   1 AA1 PRO A    5  LYS A   24  1                                  20    
   2 AA2 VAL A   65  ARG A   80  1                                  16    
   3 AA3 PRO A   88  TRP A   93  1                                   6    
   4 AA4 ALA A   98  ASN A  102  5                                   5    
   5 AA5 THR A  105  THR A  111  1                                   7    
   6 AA6 SER A  127  TRP A  138  1                                  12    
   7 AA7 ALA A  151  VAL A  163  1                                  13    
   8 AA8 SER A  169  VAL A  178  1                                  10    
   9 AA9 PRO A  192  TYR A  199  5                                   8    
  10 AB1 LEU A  216  TYR A  221  1                                   6    
  11 AB2 THR A  226  LYS A  239  1                                  14    
  12 AB3 PRO A  240  ILE A  243  5                                   4    
  13 AB4 GLU A  245  GLN A  256  1                                  12    
  14 AB5 ASN A  279  ASP A  288  1                                  10    
  15 AB6 ASP A  288  LEU A  293  1                                   6    
  16 AB7 PRO A  330  GLU A  333  5                                   4    
  17 AB8 PRO A  345  GLN A  361  1                                  17    

>  <SHEET>
   1 AA110 GLN A  52  PRO A  53  0                                        
   2 AA110 LYS A  37  ASP A  47 -1  N  ALA A  46   O  GLN A  52           
   3 AA110 GLY A  27  TYR A  34 -1  N  VAL A  30   O  PHE A  41           
   4 AA110 LEU A 334  ALA A 340 -1  O  LEU A 339   N  ALA A  29           
   5 AA110 PHE A 322  ILE A 329 -1  N  ILE A 329   O  LEU A 334           
   6 AA110 SER A 311  THR A 319 -1  N  GLY A 317   O  SER A 324           
   7 AA110 GLU A 272  ASP A 275 -1  N  LEU A 274   O  TRP A 312           
   8 AA110 MET A 265  GLN A 267 -1  N  TYR A 266   O  MET A 273           
   9 AA110 ARG A 258  THR A 262 -1  N  TYR A 259   O  GLN A 267           
  10 AA110 LYS A 299  THR A 305 -1  O  LYS A 299   N  GLN A 261           
   1 AA2 3 PHE A  60  GLU A  61  0                                        
   2 AA2 3 LYS A 224  SER A 225 -1  O  SER A 225   N  PHE A  60           
   3 AA2 3 THR A 187  TRP A 188 -1  N  TRP A 188   O  LYS A 224           
   1 AA3 2 GLN A 147  ARG A 148  0                                        
   2 AA3 2 ARG A 296  PRO A 297 -1  O  ARG A 296   N  ARG A 148           
   1 AA4 2 GLY A 202  ARG A 204  0                                        
   2 AA4 2 LYS A 207  VAL A 209 -1  O  VAL A 209   N  GLY A 202           

>  <LINK>
       OG  SER A  64                 B02 KL8 A 401     1555   1555  1.40  
       NE2 HIS A  13                ZN    ZN A 408     1555   1555  2.06  
       NE2 HIS A  13                ZN    ZN A 408     1555   5555  2.06  

>  <CISPEP>
   1 TRP A  276    PRO A  277          0         4.89                     
   2 THR A  302    PRO A  303          0        -2.72                     

>  <SITE>
   1 AC1 15 SER A  64  GLN A 120  TYR A 150  ASN A 152                    
   2 AC1 15 VAL A 211  TYR A 221  ASN A 289  LYS A 315                    
   3 AC1 15 THR A 316  GLY A 317  ALA A 318  ASN A 346                    
   4 AC1 15 HOH A 502  HOH A 703  HOH A 745                               
   1 AC2  1 LEU A 131                                                     
   1 AC3  6 ASP A 281  ILE A 284  ASP A 351  GLN A 355                    
   2 AC3  6 EDO A 404  HOH A 802                                          
   1 AC4  3 LYS A 246  GLN A 250  DMS A 403                               
   1 AC5  6 LYS A  24  TYR A  40  THR A  42  THR A  55                    
   2 AC5  6 GLN A  56  HOH A 538                                          
   1 AC6  2 ASN A 343  PRO A 345                                          
   1 AC7  2 HIS A  13   ZN A 408                                          
   1 AC8  2 HIS A  13   CL A 407                                          

>  <ORIGX1>
      1.000000  0.000000  0.000000        0.00000                         

>  <ORIGX2>
      0.000000  1.000000  0.000000        0.00000                         

>  <ORIGX3>
      0.000000  0.000000  1.000000        0.00000                         

>  <SCALE1>
      0.007196  0.000000  0.000000        0.00000                         

>  <SCALE2>
      0.000000  0.007196  0.000000        0.00000                         

>  <SCALE3>
      0.000000  0.000000  0.007196        0.00000                         

>  <ANISOU>
  504  N   SER A  64     3254   2099   3214    237    770    173       N  
  505  CA  SER A  64     3217   2162   3215    298    757    248       C  
  506  C   SER A  64     2909   2072   2816    281    538    271       C  
  507  O   SER A  64     2763   2003   2676    302    525    304       O  
  508  CB  SER A  64     3520   2503   3757    452    881    442       C  
  509  OG  SER A  64     3305   2037   3652    481   1140    428       O  
 2921  B02 KL8 A 401     5346   4001   5830    552   1243    526       B  
 2922  C04 KL8 A 401     7762   6066   8341    546   1559    462       C  
 2923  C06 KL8 A 401     8796   6594   9305    287   2038    107       C  
 2924  C07 KL8 A 401     9061   6712   9417     86   2087   -124       C  
 2925  C08 KL8 A 401     9170   6879   9404     22   1892   -193       C  
 2926  C09 KL8 A 401    10111   7746  10230   -171   1936   -396       C  
 2927  C10 KL8 A 401    10580   8077  10697   -308   2181   -532       C  
 2928  C11 KL8 A 401    10695   8092  10928   -248   2394   -463       C  
 2929  C12 KL8 A 401     9649   7123  10008    -46   2345   -255       C  
 2930  C13 KL8 A 401     8372   6763   9199    681   1730    659       C  
 2931  C14 KL8 A 401     6967   5668   7921    803   1591    898       C  
 2932  C15 KL8 A 401     6339   5254   7198    811   1330    939       C  
 2933  C16 KL8 A 401     6272   5504   7194    877   1185   1118       C  
 2934  C17 KL8 A 401     5318   4795   6113    847    916   1138       C  
 2935  C20 KL8 A 401     7727   7050   8811    949   1302   1264       C  
 2936  C21 KL8 A 401     7820   6907   9020    963   1574   1244       C  
 2937  C22 KL8 A 401     7969   6738   9099    880   1722   1052       C  
 2938  O01 KL8 A 401     3864   2550   4231    472   1107    455       O  
 2939  O18 KL8 A 401     5980   5619   6756    833    830   1131       O  
 2940  O19 KL8 A 401     5491   5041   6188    798    791   1119       O  
 2941  O23 KL8 A 401     4526   3426   5183    700   1192    765       O  
 2942  S05 KL8 A 401     7410   5419   7785    337   1713    142       S  

>  <MASTER>
      495    0    8   17   17    0   13    6 3170    1   51   28          

$$$$
