start_structures/Ligand_Substrate/Ligand_Complex_Stripped/KRT_6S1S.pdb
 OpenBabel08222315213D

 20 20  0  0  1  0  0  0  0  0999 V2000
   77.3170   38.3250  125.0790 N   0  0  0  0  0  0  0  0  0  0  0  0
   77.3330   38.6890  126.4950 C   0  0  2  0  0  0  0  0  0  0  0  0
   76.8260   37.5940  127.4370 C   0  0  0  0  0  0  0  0  0  0  0  0
   76.9770   37.7350  128.6620 O   0  0  0  0  0  0  0  0  0  0  0  0
   76.5670   39.9320  126.7170 C   0  0  0  0  0  0  0  0  0  0  0  0
   77.2640   41.0110  126.1130 O   0  0  0  0  0  0  0  0  0  0  0  0
   80.2240   41.3140  118.8180 O   0  0  0  0  0  0  0  0  0  0  0  0
   80.5240   42.3750  119.4550 C   0  0  0  0  0  0  0  0  0  0  0  0
   81.3480   43.2010  119.0030 O   0  0  0  0  0  0  0  0  0  0  0  0
   79.8040   42.6820  120.7530 C   0  0  0  0  0  0  0  0  0  0  0  0
   80.3590   43.2730  121.7840 C   0  0  0  0  0  0  0  0  0  0  0  0
   79.4470   43.5350  122.9860 C   0  0  0  0  0  0  0  0  0  0  0  0
   79.5450   44.7360  123.6260 C   0  0  0  0  0  0  0  0  0  0  0  0
   78.7170   44.9820  124.7210 C   0  0  0  0  0  0  0  0  0  0  0  0
   77.7650   44.0350  125.1100 C   0  0  0  0  0  0  0  0  0  0  0  0
   77.6510   42.8270  124.4740 C   0  0  0  0  0  0  0  0  0  0  0  0
   76.5170   41.7470  124.9160 B   0  0  0  0  0  0  0  0  0  0  0  0
   75.3740   42.2670  125.5190 O   0  0  0  0  0  0  0  0  0  0  0  0
   76.2620   40.7610  123.9540 O   0  0  0  0  0  0  0  0  0  0  0  0
   78.5090   42.5860  123.4160 C   0  0  0  0  0  0  0  0  0  0  0  0
  2  1  1  6  0  0  0
  2  5  1  0  0  0  0
  2  3  1  0  0  0  0
  3  4  2  0  0  0  0
  6 17  1  0  0  0  0
  6  5  1  0  0  0  0
  7  8  2  0  0  0  0
  8  9  1  0  0  0  0
  8 10  1  0  0  0  0
 10 11  2  0  0  0  0
 11 12  1  0  0  0  0
 12 13  2  0  0  0  0
 12 20  1  0  0  0  0
 13 14  1  0  0  0  0
 14 15  2  0  0  0  0
 15 16  1  0  0  0  0
 16 17  1  0  0  0  0
 16 20  2  0  0  0  0
 17 18  1  0  0  0  0
 17 19  1  0  0  0  0
M  END
>  <HEADER>
    HYDROLASE                               19-JUN-19   6S1S              

>  <TITLE>
    CRYSTAL STRUCTURE OF AMPC FROM PSEUDOMONAS AERUGINOSA IN COMPLEX WITH 
   2 [3-(2-CARBOXYVINYL)PHENYL]BORONIC ACID] INHIBITOR                    

>  <COMPND>
    MOL_ID: 1;                                                            
   2 MOLECULE: BETA-LACTAMASE;                                            
   3 CHAIN: A;                                                            
   4 EC: 3.5.2.6;                                                         
   5 ENGINEERED: YES                                                      

>  <SOURCE>
    MOL_ID: 1;                                                            
   2 ORGANISM_SCIENTIFIC: PSEUDOMONAS AERUGINOSA;                         
   3 ORGANISM_TAXID: 287;                                                 
   4 GENE: AMPC, EFK27_12075, RW109_RW109_01564;                          
   5 EXPRESSION_SYSTEM: ESCHERICHIA COLI;                                 
   6 EXPRESSION_SYSTEM_TAXID: 562                                         

>  <KEYWDS>
    INHIBITOR, COMPLEX, AMPC, HYDROLASE                                   

>  <EXPDTA>
    X-RAY DIFFRACTION                                                     

>  <AUTHOR>
    I.KEKEZ,M.VICARIO,P.BELLIO,E.TOSONI,G.CELENZA,J.BLAZQUEZ,D.TONDI,     
   2 L.CENDRON                                                            

>  <REVDAT>
   1   09-OCT-19 6S1S    0                                                

>  <JRNL>
      AUTH   P.LINCIANO,M.VICARIO,I.KEKEZ,P.BELLIO,G.CELENZA,             
      AUTH 2 I.MARTIN-BLECUA,J.BLAZQUEZ,L.CENDRON,D.TONDI                 
      TITL   PHENYLBORONIC ACIDS PROBING MOLECULAR RECOGNITION AGAINST    
      TITL 2 CLASS A AND CLASS C BETA-LACTAMASES.                         
      REF    ANTIBIOTICS                   V.   8       2019              
      REFN                   ESSN 2079-6382                               
      PMID   31574990                                                     
      DOI    10.3390/ANTIBIOTICS8040171                                   

>  <REMARK>
   2                                                                      
   2 RESOLUTION.    1.78 ANGSTROMS.                                       
   3                                                                      
   3 REFINEMENT.                                                          
   3   PROGRAM     : REFMAC 5.8.0222                                      
   3   AUTHORS     : MURSHUDOV,SKUBAK,LEBEDEV,PANNU,STEINER,              
   3               : NICHOLLS,WINN,LONG,VAGIN                             
   3                                                                      
   3    REFINEMENT TARGET : NULL                                          
   3                                                                      
   3  DATA USED IN REFINEMENT.                                            
   3   RESOLUTION RANGE HIGH (ANGSTROMS) : 1.78                           
   3   RESOLUTION RANGE LOW  (ANGSTROMS) : 46.78                          
   3   DATA CUTOFF            (SIGMA(F)) : NULL                           
   3   COMPLETENESS FOR RANGE        (%) : 97.6                           
   3   NUMBER OF REFLECTIONS             : 44242                          
   3                                                                      
   3  FIT TO DATA USED IN REFINEMENT.                                     
   3   CROSS-VALIDATION METHOD          : THROUGHOUT                      
   3   FREE R VALUE TEST SET SELECTION  : RANDOM                          
   3   R VALUE     (WORKING + TEST SET) : 0.178                           
   3   R VALUE            (WORKING SET) : 0.177                           
   3   FREE R VALUE                     : 0.200                           
   3   FREE R VALUE TEST SET SIZE   (%) : 5.000                           
   3   FREE R VALUE TEST SET COUNT      : 2322                            
   3                                                                      
   3  FIT IN THE HIGHEST RESOLUTION BIN.                                  
   3   TOTAL NUMBER OF BINS USED           : 20                           
   3   BIN RESOLUTION RANGE HIGH       (A) : 1.78                         
   3   BIN RESOLUTION RANGE LOW        (A) : 1.82                         
   3   REFLECTION IN BIN     (WORKING SET) : 3115                         
   3   BIN COMPLETENESS (WORKING+TEST) (%) : 93.71                        
   3   BIN R VALUE           (WORKING SET) : 0.3370                       
   3   BIN FREE R VALUE SET COUNT          : 150                          
   3   BIN FREE R VALUE                    : 0.3390                       
   3                                                                      
   3  NUMBER OF NON-HYDROGEN ATOMS USED IN REFINEMENT.                    
   3   PROTEIN ATOMS            : 2843                                    
   3   NUCLEIC ACID ATOMS       : 0                                       
   3   HETEROGEN ATOMS          : 19                                      
   3   SOLVENT ATOMS            : 131                                     
   3                                                                      
   3  B VALUES.                                                           
   3   FROM WILSON PLOT           (A**2) : NULL                           
   3   MEAN B VALUE      (OVERALL, A**2) : 38.30                          
   3   OVERALL ANISOTROPIC B VALUE.                                       
   3    B11 (A**2) : 0.00000                                              
   3    B22 (A**2) : 0.00000                                              
   3    B33 (A**2) : 0.01000                                              
   3    B12 (A**2) : 0.00000                                              
   3    B13 (A**2) : 0.00000                                              
   3    B23 (A**2) : 0.00000                                              
   3                                                                      
   3  ESTIMATED OVERALL COORDINATE ERROR.                                 
   3   ESU BASED ON R VALUE                            (A): 0.099         
   3   ESU BASED ON FREE R VALUE                       (A): 0.095         
   3   ESU BASED ON MAXIMUM LIKELIHOOD                 (A): 0.087         
   3   ESU FOR B VALUES BASED ON MAXIMUM LIKELIHOOD (A**2): 3.020         
   3                                                                      
   3 CORRELATION COEFFICIENTS.                                            
   3   CORRELATION COEFFICIENT FO-FC      : 0.973                         
   3   CORRELATION COEFFICIENT FO-FC FREE : 0.966                         
   3                                                                      
   3  RMS DEVIATIONS FROM IDEAL VALUES        COUNT    RMS    WEIGHT      
   3   BOND LENGTHS REFINED ATOMS        (A):  2962 ; 0.012 ; 0.014       
   3   BOND LENGTHS OTHERS               (A):  2635 ; 0.001 ; 0.017       
   3   BOND ANGLES REFINED ATOMS   (DEGREES):  4038 ; 1.548 ; 1.665       
   3   BOND ANGLES OTHERS          (DEGREES):  6188 ; 0.989 ; 1.632       
   3   TORSION ANGLES, PERIOD 1    (DEGREES):   376 ; 6.757 ; 5.000       
   3   TORSION ANGLES, PERIOD 2    (DEGREES):   161 ;33.230 ;21.553       
   3   TORSION ANGLES, PERIOD 3    (DEGREES):   465 ;14.957 ;15.000       
   3   TORSION ANGLES, PERIOD 4    (DEGREES):    24 ;18.527 ;15.000       
   3   CHIRAL-CENTER RESTRAINTS       (A**3):   365 ; 0.086 ; 0.200       
   3   GENERAL PLANES REFINED ATOMS      (A):  3407 ; 0.009 ; 0.020       
   3   GENERAL PLANES OTHERS             (A):   543 ; 0.001 ; 0.020       
   3   NON-BONDED CONTACTS REFINED ATOMS (A):  NULL ;  NULL ;  NULL       
   3   NON-BONDED CONTACTS OTHERS        (A):  NULL ;  NULL ;  NULL       
   3   NON-BONDED TORSION REFINED ATOMS  (A):  NULL ;  NULL ;  NULL       
   3   NON-BONDED TORSION OTHERS         (A):  NULL ;  NULL ;  NULL       
   3   H-BOND (X...Y) REFINED ATOMS      (A):  NULL ;  NULL ;  NULL       
   3   H-BOND (X...Y) OTHERS             (A):  NULL ;  NULL ;  NULL       
   3   POTENTIAL METAL-ION REFINED ATOMS (A):  NULL ;  NULL ;  NULL       
   3   POTENTIAL METAL-ION OTHERS        (A):  NULL ;  NULL ;  NULL       
   3   SYMMETRY VDW REFINED ATOMS        (A):  NULL ;  NULL ;  NULL       
   3   SYMMETRY VDW OTHERS               (A):  NULL ;  NULL ;  NULL       
   3   SYMMETRY H-BOND REFINED ATOMS     (A):  NULL ;  NULL ;  NULL       
   3   SYMMETRY H-BOND OTHERS            (A):  NULL ;  NULL ;  NULL       
   3   SYMMETRY METAL-ION REFINED ATOMS  (A):  NULL ;  NULL ;  NULL       
   3   SYMMETRY METAL-ION OTHERS         (A):  NULL ;  NULL ;  NULL       
   3                                                                      
   3  ISOTROPIC THERMAL FACTOR RESTRAINTS.     COUNT   RMS    WEIGHT      
   3   MAIN-CHAIN BOND REFINED ATOMS  (A**2):  1477 ; 3.151 ; 3.642       
   3   MAIN-CHAIN BOND OTHER ATOMS    (A**2):  1476 ; 3.131 ; 3.640       
   3   MAIN-CHAIN ANGLE REFINED ATOMS (A**2):  1847 ; 4.117 ; 5.443       
   3   MAIN-CHAIN ANGLE OTHER ATOMS   (A**2):  1848 ; 4.122 ; 5.447       
   3   SIDE-CHAIN BOND REFINED ATOMS  (A**2):  1485 ; 4.617 ; 4.228       
   3   SIDE-CHAIN BOND OTHER ATOMS    (A**2):  1482 ; 4.608 ; 4.218       
   3   SIDE-CHAIN ANGLE REFINED ATOMS (A**2):  NULL ;  NULL ;  NULL       
   3   SIDE-CHAIN ANGLE OTHER ATOMS   (A**2):  2179 ; 6.821 ; 6.101       
   3   LONG RANGE B REFINED ATOMS     (A**2):  3251 ; 7.768 ;42.562       
   3   LONG RANGE B OTHER ATOMS       (A**2):  3232 ; 7.779 ;42.448       
   3                                                                      
   3 ANISOTROPIC THERMAL FACTOR RESTRAINTS.    COUNT   RMS   WEIGHT       
   3   RIGID-BOND RESTRAINTS          (A**2):  NULL ;  NULL ;  NULL       
   3   SPHERICITY; FREE ATOMS         (A**2):  NULL ;  NULL ;  NULL       
   3   SPHERICITY; BONDED ATOMS       (A**2):  NULL ;  NULL ;  NULL       
   3                                                                      
   3  NCS RESTRAINTS STATISTICS                                           
   3   NUMBER OF DIFFERENT NCS GROUPS : NULL                              
   3                                                                      
   3  TLS DETAILS                                                         
   3   NUMBER OF TLS GROUPS  : NULL                                       
   3                                                                      
   3  BULK SOLVENT MODELLING.                                             
   3   METHOD USED : NULL                                                 
   3   PARAMETERS FOR MASK CALCULATION                                    
   3   VDW PROBE RADIUS   : 1.20                                          
   3   ION PROBE RADIUS   : 0.80                                          
   3   SHRINKAGE RADIUS   : 0.80                                          
   3                                                                      
   3  OTHER REFINEMENT REMARKS: HYDROGENS HAVE BEEN ADDED IN THE RIDING   
   3  POSITIONS                                                           
   4                                                                      
   4 6S1S COMPLIES WITH FORMAT V. 3.30, 13-JUL-11                         
 100                                                                      
 100 THIS ENTRY HAS BEEN PROCESSED BY PDBE ON 19-JUN-19.                  
 100 THE DEPOSITION ID IS D_1292102998.                                   
 200                                                                      
 200 EXPERIMENTAL DETAILS                                                 
 200  EXPERIMENT TYPE                : X-RAY DIFFRACTION                  
 200  DATE OF DATA COLLECTION        : 29-APR-16                          
 200  TEMPERATURE           (KELVIN) : 100                                
 200  PH                             : 8.7                                
 200  NUMBER OF CRYSTALS USED        : 1                                  
 200                                                                      
 200  SYNCHROTRON              (Y/N) : Y                                  
 200  RADIATION SOURCE               : ESRF                               
 200  BEAMLINE                       : ID23-1                             
 200  X-RAY GENERATOR MODEL          : NULL                               
 200  MONOCHROMATIC OR LAUE    (M/L) : M                                  
 200  WAVELENGTH OR RANGE        (A) : 0.97779                            
 200  MONOCHROMATOR                  : NULL                               
 200  OPTICS                         : NULL                               
 200                                                                      
 200  DETECTOR TYPE                  : PIXEL                              
 200  DETECTOR MANUFACTURER          : DECTRIS PILATUS3 6M                
 200  INTENSITY-INTEGRATION SOFTWARE : XDS                                
 200  DATA SCALING SOFTWARE          : AIMLESS                            
 200                                                                      
 200  NUMBER OF UNIQUE REFLECTIONS   : 46605                              
 200  RESOLUTION RANGE HIGH      (A) : 1.780                              
 200  RESOLUTION RANGE LOW       (A) : 46.780                             
 200  REJECTION CRITERIA  (SIGMA(I)) : NULL                               
 200                                                                      
 200 OVERALL.                                                             
 200  COMPLETENESS FOR RANGE     (%) : 97.8                               
 200  DATA REDUNDANCY                : 3.700                              
 200  R MERGE                    (I) : 0.04200                            
 200  R SYM                      (I) : NULL                               
 200  <I/SIGMA(I)> FOR THE DATA SET  : 12.6000                            
 200                                                                      
 200 IN THE HIGHEST RESOLUTION SHELL.                                     
 200  HIGHEST RESOLUTION SHELL, RANGE HIGH (A) : 1.78                     
 200  HIGHEST RESOLUTION SHELL, RANGE LOW  (A) : 1.81                     
 200  COMPLETENESS FOR SHELL     (%) : NULL                               
 200  DATA REDUNDANCY IN SHELL       : NULL                               
 200  R MERGE FOR SHELL          (I) : NULL                               
 200  R SYM FOR SHELL            (I) : NULL                               
 200  <I/SIGMA(I)> FOR SHELL         : NULL                               
 200                                                                      
 200 DIFFRACTION PROTOCOL: SINGLE WAVELENGTH                              
 200 METHOD USED TO DETERMINE THE STRUCTURE: MOLECULAR REPLACEMENT        
 200 SOFTWARE USED: PHENIX                                                
 200 STARTING MODEL: 4GZB                                                 
 200                                                                      
 200 REMARK: NULL                                                         
 280                                                                      
 280 CRYSTAL                                                              
 280 SOLVENT CONTENT, VS   (%): 56.16                                     
 280 MATTHEWS COEFFICIENT, VM (ANGSTROMS**3/DA): 2.81                     
 280                                                                      
 280 CRYSTALLIZATION CONDITIONS: 1.8 M POTASSIUM PHOSPHATE BUFFER, PH     
 280  8.7, VAPOR DIFFUSION, HANGING DROP, TEMPERATURE 294K                
 290                                                                      
 290 CRYSTALLOGRAPHIC SYMMETRY                                            
 290 SYMMETRY OPERATORS FOR SPACE GROUP: P 32 2 1                         
 290                                                                      
 290      SYMOP   SYMMETRY                                                
 290     NNNMMM   OPERATOR                                                
 290       1555   X,Y,Z                                                   
 290       2555   -Y,X-Y,Z+2/3                                            
 290       3555   -X+Y,-X,Z+1/3                                           
 290       4555   Y,X,-Z                                                  
 290       5555   X-Y,-Y,-Z+1/3                                           
 290       6555   -X,-X+Y,-Z+2/3                                          
 290                                                                      
 290     WHERE NNN -> OPERATOR NUMBER                                     
 290           MMM -> TRANSLATION VECTOR                                  
 290                                                                      
 290 CRYSTALLOGRAPHIC SYMMETRY TRANSFORMATIONS                            
 290 THE FOLLOWING TRANSFORMATIONS OPERATE ON THE ATOM/HETATM             
 290 RECORDS IN THIS ENTRY TO PRODUCE CRYSTALLOGRAPHICALLY                
 290 RELATED MOLECULES.                                                   
 290   SMTRY1   1  1.000000  0.000000  0.000000        0.00000            
 290   SMTRY2   1  0.000000  1.000000  0.000000        0.00000            
 290   SMTRY3   1  0.000000  0.000000  1.000000        0.00000            
 290   SMTRY1   2 -0.500000 -0.866025  0.000000        0.00000            
 290   SMTRY2   2  0.866025 -0.500000  0.000000        0.00000            
 290   SMTRY3   2  0.000000  0.000000  1.000000       82.37533            
 290   SMTRY1   3 -0.500000  0.866025  0.000000        0.00000            
 290   SMTRY2   3 -0.866025 -0.500000  0.000000        0.00000            
 290   SMTRY3   3  0.000000  0.000000  1.000000       41.18767            
 290   SMTRY1   4 -0.500000  0.866025  0.000000        0.00000            
 290   SMTRY2   4  0.866025  0.500000  0.000000        0.00000            
 290   SMTRY3   4  0.000000  0.000000 -1.000000        0.00000            
 290   SMTRY1   5  1.000000  0.000000  0.000000        0.00000            
 290   SMTRY2   5  0.000000 -1.000000  0.000000        0.00000            
 290   SMTRY3   5  0.000000  0.000000 -1.000000       41.18767            
 290   SMTRY1   6 -0.500000 -0.866025  0.000000        0.00000            
 290   SMTRY2   6 -0.866025  0.500000  0.000000        0.00000            
 290   SMTRY3   6  0.000000  0.000000 -1.000000       82.37533            
 290                                                                      
 290 REMARK: NULL                                                         
 300                                                                      
 300 BIOMOLECULE: 1                                                       
 300 SEE REMARK 350 FOR THE AUTHOR PROVIDED AND/OR PROGRAM                
 300 GENERATED ASSEMBLY INFORMATION FOR THE STRUCTURE IN                  
 300 THIS ENTRY. THE REMARK MAY ALSO PROVIDE INFORMATION ON               
 300 BURIED SURFACE AREA.                                                 
 350                                                                      
 350 COORDINATES FOR A COMPLETE MULTIMER REPRESENTING THE KNOWN           
 350 BIOLOGICALLY SIGNIFICANT OLIGOMERIZATION STATE OF THE                
 350 MOLECULE CAN BE GENERATED BY APPLYING BIOMT TRANSFORMATIONS          
 350 GIVEN BELOW.  BOTH NON-CRYSTALLOGRAPHIC AND                          
 350 CRYSTALLOGRAPHIC OPERATIONS ARE GIVEN.                               
 350                                                                      
 350 BIOMOLECULE: 1                                                       
 350 SOFTWARE DETERMINED QUATERNARY STRUCTURE: MONOMERIC                  
 350 SOFTWARE USED: PISA                                                  
 350 TOTAL BURIED SURFACE AREA: 130 ANGSTROM**2                           
 350 SURFACE AREA OF THE COMPLEX: 15160 ANGSTROM**2                       
 350 CHANGE IN SOLVENT FREE ENERGY: -2.0 KCAL/MOL                         
 350 APPLY THE FOLLOWING TO CHAINS: A                                     
 350   BIOMT1   1  1.000000  0.000000  0.000000        0.00000            
 350   BIOMT2   1  0.000000  1.000000  0.000000        0.00000            
 350   BIOMT3   1  0.000000  0.000000  1.000000        0.00000            
 465                                                                      
 465 MISSING RESIDUES                                                     
 465 THE FOLLOWING RESIDUES WERE NOT LOCATED IN THE                       
 465 EXPERIMENT. (M=MODEL NUMBER; RES=RESIDUE NAME; C=CHAIN               
 465 IDENTIFIER; SSSEQ=SEQUENCE NUMBER; I=INSERTION CODE.)                
 465                                                                      
 465   M RES C SSSEQI                                                     
 465     MET A   -25                                                      
 465     ARG A   -24                                                      
 465     ASP A   -23                                                      
 465     THR A   -22                                                      
 465     ARG A   -21                                                      
 465     PHE A   -20                                                      
 465     PRO A   -19                                                      
 465     CYS A   -18                                                      
 465     LEU A   -17                                                      
 465     CYS A   -16                                                      
 465     GLY A   -15                                                      
 465     ILE A   -14                                                      
 465     ALA A   -13                                                      
 465     ALA A   -12                                                      
 465     SER A   -11                                                      
 465     THR A   -10                                                      
 465     LEU A    -9                                                      
 465     LEU A    -8                                                      
 465     PHE A    -7                                                      
 465     ALA A    -6                                                      
 465     THR A    -5                                                      
 465     THR A    -4                                                      
 465     PRO A    -3                                                      
 465     ALA A    -2                                                      
 465     ILE A    -1                                                      
 465     ALA A     0                                                      
 465     GLY A     1                                                      
 465     GLU A     2                                                      
 465     LYS A   370                                                      
 465     ARG A   371                                                      
 500                                                                      
 500 GEOMETRY AND STEREOCHEMISTRY                                         
 500 SUBTOPIC: COVALENT BOND ANGLES                                       
 500                                                                      
 500 THE STEREOCHEMICAL PARAMETERS OF THE FOLLOWING RESIDUES              
 500 HAVE VALUES WHICH DEVIATE FROM EXPECTED VALUES BY MORE               
 500 THAN 6*RMSD (M=MODEL NUMBER; RES=RESIDUE NAME; C=CHAIN               
 500 IDENTIFIER; SSEQ=SEQUENCE NUMBER; I=INSERTION CODE).                 
 500                                                                      
 500 STANDARD TABLE:                                                      
 500 FORMAT: (10X,I3,1X,A3,1X,A1,I4,A1,3(1X,A4,2X),12X,F5.1)              
 500                                                                      
 500 EXPECTED VALUES PROTEIN: ENGH AND HUBER, 1999                        
 500 EXPECTED VALUES NUCLEIC ACID: CLOWNEY ET AL 1996                     
 500                                                                      
 500  M RES CSSEQI ATM1   ATM2   ATM3                                     
 500    ARG A 149   NE  -  CZ  -  NH2 ANGL. DEV. =  -3.5 DEGREES          
 500                                                                      
 500 REMARK: NULL                                                         
 500                                                                      
 500 GEOMETRY AND STEREOCHEMISTRY                                         
 500 SUBTOPIC: TORSION ANGLES                                             
 500                                                                      
 500 TORSION ANGLES OUTSIDE THE EXPECTED RAMACHANDRAN REGIONS:            
 500 (M=MODEL NUMBER; RES=RESIDUE NAME; C=CHAIN IDENTIFIER;               
 500 SSEQ=SEQUENCE NUMBER; I=INSERTION CODE).                             
 500                                                                      
 500 STANDARD TABLE:                                                      
 500 FORMAT:(10X,I3,1X,A3,1X,A1,I4,A1,4X,F7.2,3X,F7.2)                    
 500                                                                      
 500 EXPECTED VALUES: GJ KLEYWEGT AND TA JONES (1996). PHI/PSI-           
 500 CHOLOGY: RAMACHANDRAN REVISITED. STRUCTURE 4, 1395 - 1400            
 500                                                                      
 500  M RES CSSEQI        PSI       PHI                                   
 500    TYR A 112       30.26     71.46                                   
 500    GLN A 178      -50.33   -120.26                                   
 500    GLU A 194      -58.65    -29.54                                   
 500    TYR A 223       25.44   -161.27                                   
 500    HIS A 257       45.05   -101.11                                   
 500                                                                      
 500 REMARK: NULL                                                         
 500                                                                      
 500 GEOMETRY AND STEREOCHEMISTRY                                         
 500 SUBTOPIC: PLANAR GROUPS                                              
 500                                                                      
 500 PLANAR GROUPS IN THE FOLLOWING RESIDUES HAVE A TOTAL                 
 500 RMS DISTANCE OF ALL ATOMS FROM THE BEST-FIT PLANE                    
 500 BY MORE THAN AN EXPECTED VALUE OF 6*RMSD, WITH AN                    
 500 RMSD 0.02 ANGSTROMS, OR AT LEAST ONE ATOM HAS                        
 500 AN RMSD GREATER THAN THIS VALUE                                      
 500 (M=MODEL NUMBER; RES=RESIDUE NAME; C=CHAIN IDENTIFIER;               
 500 SSEQ=SEQUENCE NUMBER; I=INSERTION CODE).                             
 500                                                                      
 500  M RES CSSEQI        RMS     TYPE                                    
 500    ARG A  53         0.13    SIDE CHAIN                              
 500    ARG A  88         0.13    SIDE CHAIN                              
 500    ARG A 137         0.08    SIDE CHAIN                              
 500    ARG A 173         0.08    SIDE CHAIN                              
 500    ARG A 283         0.10    SIDE CHAIN                              
 500    ARG A 301         0.09    SIDE CHAIN                              
 500                                                                      
 500 REMARK: NULL                                                         
 800                                                                      
 800 SITE                                                                 
 800 SITE_IDENTIFIER: AC1                                                 
 800 EVIDENCE_CODE: SOFTWARE                                              
 800 SITE_DESCRIPTION: binding site for residue KRT A 401                 
 800                                                                      
 800 SITE_IDENTIFIER: AC2                                                 
 800 EVIDENCE_CODE: SOFTWARE                                              
 800 SITE_DESCRIPTION: binding site for residue PO4 A 402                 

>  <DBREF>
 6S1S A  -25   371  UNP    Q541D8   Q541D8_PSEAI     1    397             

>  <SEQRES>
   1 A  397  MET ARG ASP THR ARG PHE PRO CYS LEU CYS GLY ILE ALA          
   2 A  397  ALA SER THR LEU LEU PHE ALA THR THR PRO ALA ILE ALA          
   3 A  397  GLY GLU ALA PRO ALA ASP ARG LEU LYS ALA LEU VAL ASP          
   4 A  397  ALA ALA VAL GLN PRO VAL MET LYS ALA ASN ASP ILE PRO          
   5 A  397  GLY LEU ALA VAL ALA ILE SER LEU LYS GLY GLU PRO HIS          
   6 A  397  TYR PHE SER TYR GLY LEU ALA SER LYS GLU ASP GLY ARG          
   7 A  397  ARG VAL THR PRO GLU THR LEU PHE GLU ILE GLY SER VAL          
   8 A  397  SER LYS THR PHE THR ALA THR LEU ALA GLY TYR ALA LEU          
   9 A  397  THR GLN ASP LYS MET ARG LEU ASP ASP ARG ALA SER GLN          
  10 A  397  HIS TRP PRO ALA LEU GLN GLY SER ARG PHE ASP GLY ILE          
  11 A  397  SER LEU LEU ASP LEU ALA THR TYR THR ALA GLY GLY LEU          
  12 A  397  PRO LEU GLN PHE PRO ASP SER VAL GLN LYS ASP GLN ALA          
  13 A  397  GLN ILE ARG ASP TYR TYR ARG GLN TRP GLN PRO THR TYR          
  14 A  397  ALA PRO GLY SER GLN ARG LEU TYR SER ASN PRO SER ILE          
  15 A  397  GLY LEU PHE GLY TYR LEU ALA ALA ARG SER LEU GLY GLN          
  16 A  397  PRO PHE GLU ARG LEU MET GLU GLN GLN VAL PHE PRO ALA          
  17 A  397  LEU GLY LEU GLU GLN THR HIS LEU ASP VAL PRO GLU ALA          
  18 A  397  ALA LEU ALA GLN TYR ALA GLN GLY TYR GLY LYS ASP ASP          
  19 A  397  ARG PRO LEU ARG VAL GLY PRO GLY PRO LEU ASP ALA GLU          
  20 A  397  GLY TYR GLY VAL LYS THR SER ALA ALA ASP LEU LEU ARG          
  21 A  397  PHE VAL ASP ALA ASN LEU HIS PRO GLU ARG LEU ASP ARG          
  22 A  397  PRO TRP ALA GLN ALA LEU ASP ALA THR HIS ARG GLY TYR          
  23 A  397  TYR LYS VAL GLY ASP MET THR GLN GLY LEU GLY TRP GLU          
  24 A  397  ALA TYR ASP TRP PRO ILE SER LEU LYS ARG LEU GLN ALA          
  25 A  397  GLY ASN SER THR PRO MET ALA LEU GLN PRO HIS ARG ILE          
  26 A  397  ALA ARG LEU PRO ALA PRO GLN ALA LEU GLU GLY GLN ARG          
  27 A  397  LEU LEU ASN LYS THR GLY SER THR ASN GLY PHE GLY ALA          
  28 A  397  TYR VAL ALA PHE VAL PRO GLY ARG ASP LEU GLY LEU VAL          
  29 A  397  ILE LEU ALA ASN ARG ASN TYR PRO ASN ALA GLU ARG VAL          
  30 A  397  LYS ILE ALA TYR ALA ILE LEU SER GLY LEU GLU GLN GLN          
  31 A  397  GLY LYS VAL PRO LEU LYS ARG                                  

>  <HET>
 KRT  A 401      14                                                       
 PO4  A 402       5                                                       

>  <HETNAM>
     KRT (~{E})-3-[3-(DIHYDROXYBORANYL)PHENYL]PROP-2-ENOIC ACID           
     PO4 PHOSPHATE ION                                                    

>  <FORMUL>
   2  KRT    C9 H9 B O4                                                   
   3  PO4    O4 P 3-                                                      
   4  HOH   *131(H2 O)                                                    

>  <HELIX>
   1 AA1 ALA A    3  ASP A    6  5                                   4    
   2 AA2 ARG A    7  ASP A   24  1                                  18    
   3 AA3 VAL A   65  GLN A   80  1                                  16    
   4 AA4 ARG A   88  HIS A   92  5                                   5    
   5 AA5 TRP A   93  GLN A   97  5                                   5    
   6 AA6 SER A   99  GLY A  103  5                                   5    
   7 AA7 SER A  105  THR A  111  1                                   7    
   8 AA8 ASP A  128  TRP A  139  1                                  12    
   9 AA9 SER A  152  LEU A  167  1                                  16    
  10 AB1 PRO A  170  GLN A  178  1                                   9    
  11 AB2 GLN A  178  LEU A  183  1                                   6    
  12 AB3 PRO A  193  TYR A  200  5                                   8    
  13 AB4 LYS A  206  ASP A  208  5                                   3    
  14 AB5 LEU A  218  GLY A  224  1                                   7    
  15 AB6 ALA A  229  HIS A  241  1                                  13    
  16 AB7 PRO A  242  LEU A  245  5                                   4    
  17 AB8 ASP A  246  HIS A  257  1                                  12    
  18 AB9 SER A  280  ASN A  288  1                                   9    
  19 AC1 SER A  289  GLN A  295  1                                   7    
  20 AC2 PRO A  331  ARG A  333  5                                   3    
  21 AC3 PRO A  346  GLY A  365  1                                  20    

>  <SHEET>
   1 AA110 ARG A  52  ARG A  53  0                                        
   2 AA110 GLU A  37  SER A  47 -1  N  ALA A  46   O  ARG A  52           
   3 AA110 GLY A  27  LEU A  34 -1  N  VAL A  30   O  PHE A  41           
   4 AA110 LEU A 335  ALA A 341 -1  O  LEU A 340   N  ALA A  29           
   5 AA110 PHE A 323  VAL A 330 -1  N  VAL A 330   O  LEU A 335           
   6 AA110 ARG A 312  THR A 320 -1  N  GLY A 318   O  ALA A 325           
   7 AA110 GLU A 273  ASP A 276 -1  N  TYR A 275   O  LEU A 313           
   8 AA110 MET A 266  GLN A 268 -1  N  THR A 267   O  ALA A 274           
   9 AA110 ARG A 258  VAL A 263 -1  N  VAL A 263   O  MET A 266           
  10 AA110 ALA A 300  ALA A 307 -1  O  GLN A 306   N  GLY A 259           
   1 AA2 3 LEU A  59  GLU A  61  0                                        
   2 AA2 3 LYS A 226  SER A 228 -1  O  THR A 227   N  PHE A  60           
   3 AA2 3 THR A 188  HIS A 189 -1  N  HIS A 189   O  LYS A 226           
   1 AA3 2 GLN A 148  ARG A 149  0                                        
   2 AA3 2 HIS A 297  ARG A 298 -1  O  HIS A 297   N  ARG A 149           
   1 AA4 2 GLY A 203  TYR A 204  0                                        
   2 AA4 2 PRO A 210  LEU A 211 -1  O  LEU A 211   N  GLY A 203           

>  <LINK>
       OG  SER A  64                 B12 KRT A 401     1555   1555  1.59  

>  <CISPEP>
   1 TRP A  277    PRO A  278          0        -3.13                     

>  <SITE>
   1 AC1 10 SER A  64  TYR A 151  TYR A 223  GLY A 318                    
   2 AC1 10 SER A 319  THR A 320  ASN A 321  HOH A 502                    
   3 AC1 10 HOH A 561  HOH A 567                                          
   1 AC2  2 GLN A 129  ARG A 165                                          

>  <ORIGX1>
      1.000000  0.000000  0.000000        0.00000                         

>  <ORIGX2>
      0.000000  1.000000  0.000000        0.00000                         

>  <ORIGX3>
      0.000000  0.000000  1.000000        0.00000                         

>  <SCALE1>
      0.012095  0.006983  0.000000        0.00000                         

>  <SCALE2>
      0.000000  0.013966  0.000000        0.00000                         

>  <SCALE3>
      0.000000  0.000000  0.008093        0.00000                         

>  <MASTER>
      354    0    2   21   17    0    4    6 2993    1   20   31          

$$$$
