start_structures/Ligand_Substrate/Ligand_Complex_Stripped/L4C_2X71.pdb
 OpenBabel08222315203D

 25 24  0  0  1  0  0  0  0  0999 V2000
   22.0630    0.2220   14.8180 N   0  0  0  0  0  0  0  0  0  0  0  0
   20.8130   -0.5430   15.0550 C   0  0  2  0  0  0  0  0  0  0  0  0
   20.1320   -0.3570   16.4170 C   0  0  0  0  0  0  0  0  0  0  0  0
   19.0600   -0.9240   16.6390 O   0  0  0  0  0  0  0  0  0  0  0  0
   21.0060   -2.0240   14.7740 C   0  0  0  0  0  0  0  0  0  0  0  0
   21.2950   -2.2410   13.4060 O   0  0  0  0  0  0  0  0  0  0  0  0
   24.9900   -9.7710   14.2960 O   0  0  0  0  0  0  0  0  0  0  0  0
   24.4970   -8.6220   14.2310 C   0  0  0  0  0  0  0  0  0  0  0  0
   23.6190   -8.2500   15.0400 O   0  0  0  0  0  0  0  0  0  0  0  0
   24.9640   -7.6950   13.1190 C   0  0  0  0  0  0  0  0  0  0  0  0
   25.4030   -6.3180   13.6050 C   0  0  0  0  0  0  0  0  0  0  0  0
   24.2230   -5.5770   14.1960 C   0  0  0  0  0  0  0  0  0  0  0  0
   24.0490   -5.4510   15.6320 C   0  0  0  0  0  0  0  0  0  0  0  0
   22.9200   -5.2200   16.0570 O   0  0  0  0  0  0  0  0  0  0  0  0
   25.0120   -5.5920   16.4000 O   0  0  0  0  0  0  0  0  0  0  0  0
   23.3250   -5.0530   13.4770 N   0  0  0  0  0  0  0  0  0  0  0  0
   23.3490   -5.0820   12.1200 O   0  0  0  0  0  0  0  0  0  0  0  0
   22.3870   -4.3130   11.4010 C   0  0  0  0  0  0  0  0  0  0  0  0
   22.6880   -2.8110   11.5300 C   0  0  2  0  0  0  0  0  0  0  0  0
   24.0300   -2.5810   10.9860 N   0  0  0  0  0  0  0  0  0  0  0  0
   24.2890   -2.5530    9.6400 C   0  0  0  0  0  0  0  0  0  0  0  0
   25.7180   -2.2840    9.2490 C   0  0  0  0  0  0  0  0  0  0  0  0
   23.4110   -2.7410    8.8060 O   0  0  0  0  0  0  0  0  0  0  0  0
   22.6160   -2.3280   12.9790 C   0  0  0  0  0  0  0  0  0  0  0  0
   23.6560   -2.0460   13.5820 O   0  0  0  0  0  0  0  0  0  0  0  0
  2  1  1  1  0  0  0
  2  3  1  0  0  0  0
  3  4  2  0  0  0  0
  5  2  1  0  0  0  0
  6 24  1  0  0  0  0
  6  5  1  0  0  0  0
  7  8  2  0  0  0  0
  8  9  1  0  0  0  0
  8 10  1  0  0  0  0
 10 11  1  0  0  0  0
 11 12  1  0  0  0  0
 12 13  1  0  0  0  0
 12 16  2  0  0  0  0
 13 14  2  0  0  0  0
 13 15  1  0  0  0  0
 16 17  1  0  0  0  0
 17 18  1  0  0  0  0
 19 18  1  1  0  0  0
 19 20  1  0  0  0  0
 19 24  1  0  0  0  0
 20 21  1  0  0  0  0
 21 22  1  0  0  0  0
 21 23  2  0  0  0  0
 24 25  2  0  0  0  0
M  END
>  <HEADER>
    HYDROLASE/ANTIBIOTIC                    22-FEB-10   2X71              

>  <TITLE>
    STRUCTURAL BASIS FOR THE INTERACTION OF LACTIVICINS WITH              
   2 SERINE BETA-LACTAMASES                                               

>  <COMPND>
    MOL_ID: 1;                                                            
   2 MOLECULE: BETA-LACTAMASE;                                            
   3 CHAIN: A, B;                                                         
   4 EC: 3.5.2.6                                                          

>  <SOURCE>
    MOL_ID: 1;                                                            
   2 ORGANISM_SCIENTIFIC: BACILLUS LICHENIFORMIS;                         
   3 ORGANISM_TAXID: 1402;                                                
   4 STRAIN: BS3                                                          

>  <KEYWDS>
    HYDROLASE-ANTIBIOTIC COMPLEX, ANTIBIOTIC                              

>  <EXPDTA>
    X-RAY DIFFRACTION                                                     

>  <AUTHOR>
    E.SAUVAGE,R.HERMAN,F.KERFF,M.ROCABOY,P.CHARLIER                       

>  <REVDAT>
   3   02-NOV-11 2X71    1       JRNL                                     
   2   13-JUL-11 2X71    1       VERSN                                    
   1   14-JUL-10 2X71    0                                                

>  <JRNL>
      AUTH   T.BROWN,P.CHARLIER,R.HERMAN,C.J.SCHOFIELD,E.SAUVAGE          
      TITL   STRUCTURAL BASIS FOR THE INTERACTION OF LACTIVICINS WITH     
      TITL 2 SERINE BETA-LACTAMASES.                                      
      REF    J.MED.CHEM.                   V.  53  5890 2010              
      REFN                   ISSN 0022-2623                               
      PMID   20593835                                                     
      DOI    10.1021/JM100437U                                            

>  <REMARK>
   2                                                                      
   2 RESOLUTION.    2.10 ANGSTROMS.                                       
   3                                                                      
   3 REFINEMENT.                                                          
   3   PROGRAM     : REFMAC 5.2.0019                                      
   3   AUTHORS     : MURSHUDOV,VAGIN,DODSON                               
   3                                                                      
   3    REFINEMENT TARGET : MAXIMUM LIKELIHOOD                            
   3                                                                      
   3  DATA USED IN REFINEMENT.                                            
   3   RESOLUTION RANGE HIGH (ANGSTROMS) : 2.10                           
   3   RESOLUTION RANGE LOW  (ANGSTROMS) : 34.69                          
   3   DATA CUTOFF            (SIGMA(F)) : NONE                           
   3   COMPLETENESS FOR RANGE        (%) : 99.33                          
   3   NUMBER OF REFLECTIONS             : 32944                          
   3                                                                      
   3  FIT TO DATA USED IN REFINEMENT.                                     
   3   CROSS-VALIDATION METHOD          : THROUGHOUT                      
   3   FREE R VALUE TEST SET SELECTION  : RANDOM                          
   3   R VALUE     (WORKING + TEST SET) : 0.18876                         
   3   R VALUE            (WORKING SET) : 0.18671                         
   3   FREE R VALUE                     : 0.22698                         
   3   FREE R VALUE TEST SET SIZE   (%) : 5.0                             
   3   FREE R VALUE TEST SET COUNT      : 1744                            
   3                                                                      
   3  FIT IN THE HIGHEST RESOLUTION BIN.                                  
   3   TOTAL NUMBER OF BINS USED           : 20                           
   3   BIN RESOLUTION RANGE HIGH       (A) : 2.100                        
   3   BIN RESOLUTION RANGE LOW        (A) : 2.154                        
   3   REFLECTION IN BIN     (WORKING SET) : 2414                         
   3   BIN COMPLETENESS (WORKING+TEST) (%) : 99.11                        
   3   BIN R VALUE           (WORKING SET) : 0.232                        
   3   BIN FREE R VALUE SET COUNT          : 134                          
   3   BIN FREE R VALUE                    : 0.259                        
   3                                                                      
   3  NUMBER OF NON-HYDROGEN ATOMS USED IN REFINEMENT.                    
   3   PROTEIN ATOMS            : 3988                                    
   3   NUCLEIC ACID ATOMS       : 0                                       
   3   HETEROGEN ATOMS          : 36                                      
   3   SOLVENT ATOMS            : 304                                     
   3                                                                      
   3  B VALUES.                                                           
   3   B VALUE TYPE : LIKELY RESIDUAL                                     
   3   FROM WILSON PLOT           (A**2) : NULL                           
   3   MEAN B VALUE      (OVERALL, A**2) : 19.225                         
   3   OVERALL ANISOTROPIC B VALUE.                                       
   3    B11 (A**2) : -0.01                                                
   3    B22 (A**2) : 0.02                                                 
   3    B33 (A**2) : -0.01                                                
   3    B12 (A**2) : 0.00                                                 
   3    B13 (A**2) : -0.01                                                
   3    B23 (A**2) : 0.00                                                 
   3                                                                      
   3  ESTIMATED OVERALL COORDINATE ERROR.                                 
   3   ESU BASED ON R VALUE                            (A): 0.210         
   3   ESU BASED ON FREE R VALUE                       (A): 0.176         
   3   ESU BASED ON MAXIMUM LIKELIHOOD                 (A): 0.125         
   3   ESU FOR B VALUES BASED ON MAXIMUM LIKELIHOOD (A**2): 9.073         
   3                                                                      
   3 CORRELATION COEFFICIENTS.                                            
   3   CORRELATION COEFFICIENT FO-FC      : 0.948                         
   3   CORRELATION COEFFICIENT FO-FC FREE : 0.926                         
   3                                                                      
   3  RMS DEVIATIONS FROM IDEAL VALUES        COUNT    RMS    WEIGHT      
   3   BOND LENGTHS REFINED ATOMS        (A):  4079 ; 0.010 ; 0.022       
   3   BOND LENGTHS OTHERS               (A):  NULL ;  NULL ;  NULL       
   3   BOND ANGLES REFINED ATOMS   (DEGREES):  5514 ; 1.239 ; 1.985       
   3   BOND ANGLES OTHERS          (DEGREES):  NULL ;  NULL ;  NULL       
   3   TORSION ANGLES, PERIOD 1    (DEGREES):   508 ; 6.170 ; 5.000       
   3   TORSION ANGLES, PERIOD 2    (DEGREES):   186 ;36.787 ;25.161       
   3   TORSION ANGLES, PERIOD 3    (DEGREES):   738 ;16.949 ;15.000       
   3   TORSION ANGLES, PERIOD 4    (DEGREES):    28 ;18.216 ;15.000       
   3   CHIRAL-CENTER RESTRAINTS       (A**3):   637 ; 0.084 ; 0.200       
   3   GENERAL PLANES REFINED ATOMS      (A):  3036 ; 0.004 ; 0.020       
   3   GENERAL PLANES OTHERS             (A):  NULL ;  NULL ;  NULL       
   3   NON-BONDED CONTACTS REFINED ATOMS (A):  2162 ; 0.194 ; 0.200       
   3   NON-BONDED CONTACTS OTHERS        (A):  NULL ;  NULL ;  NULL       
   3   NON-BONDED TORSION REFINED ATOMS  (A):  2840 ; 0.299 ; 0.200       
   3   NON-BONDED TORSION OTHERS         (A):  NULL ;  NULL ;  NULL       
   3   H-BOND (X...Y) REFINED ATOMS      (A):   337 ; 0.128 ; 0.200       
   3   H-BOND (X...Y) OTHERS             (A):  NULL ;  NULL ;  NULL       
   3   POTENTIAL METAL-ION REFINED ATOMS (A):  NULL ;  NULL ;  NULL       
   3   POTENTIAL METAL-ION OTHERS        (A):  NULL ;  NULL ;  NULL       
   3   SYMMETRY VDW REFINED ATOMS        (A):    48 ; 0.234 ; 0.200       
   3   SYMMETRY VDW OTHERS               (A):  NULL ;  NULL ;  NULL       
   3   SYMMETRY H-BOND REFINED ATOMS     (A):    12 ; 0.250 ; 0.200       
   3   SYMMETRY H-BOND OTHERS            (A):  NULL ;  NULL ;  NULL       
   3   SYMMETRY METAL-ION REFINED ATOMS  (A):  NULL ;  NULL ;  NULL       
   3   SYMMETRY METAL-ION OTHERS         (A):  NULL ;  NULL ;  NULL       
   3                                                                      
   3  ISOTROPIC THERMAL FACTOR RESTRAINTS.     COUNT   RMS    WEIGHT      
   3   MAIN-CHAIN BOND REFINED ATOMS  (A**2):  2611 ; 0.496 ; 1.500       
   3   MAIN-CHAIN BOND OTHER ATOMS    (A**2):  NULL ;  NULL ;  NULL       
   3   MAIN-CHAIN ANGLE REFINED ATOMS (A**2):  4106 ; 0.856 ; 2.000       
   3   SIDE-CHAIN BOND REFINED ATOMS  (A**2):  1630 ; 1.512 ; 3.000       
   3   SIDE-CHAIN ANGLE REFINED ATOMS (A**2):  1408 ; 2.457 ; 4.500       
   3                                                                      
   3 ANISOTROPIC THERMAL FACTOR RESTRAINTS.    COUNT   RMS   WEIGHT       
   3   RIGID-BOND RESTRAINTS          (A**2):  NULL ;  NULL ;  NULL       
   3   SPHERICITY; FREE ATOMS         (A**2):  NULL ;  NULL ;  NULL       
   3   SPHERICITY; BONDED ATOMS       (A**2):  NULL ;  NULL ;  NULL       
   3                                                                      
   3  NCS RESTRAINTS STATISTICS                                           
   3   NUMBER OF DIFFERENT NCS GROUPS : NULL                              
   3                                                                      
   3  TLS DETAILS                                                         
   3   NUMBER OF TLS GROUPS  : 16                                         
   3                                                                      
   3   TLS GROUP : 1                                                      
   3    NUMBER OF COMPONENTS GROUP : 1                                    
   3    COMPONENTS        C SSSEQI   TO  C SSSEQI                         
   3    RESIDUE RANGE :   A    31        A    64                          
   3    ORIGIN FOR THE GROUP (A):  31.7100   6.0320  30.5340              
   3    T TENSOR                                                          
   3      T11:   0.0983 T22:   0.1177                                     
   3      T33:   0.1400 T12:  -0.0114                                     
   3      T13:  -0.0054 T23:  -0.0246                                     
   3    L TENSOR                                                          
   3      L11:   1.2412 L22:   1.0272                                     
   3      L33:   0.9919 L12:  -0.7329                                     
   3      L13:  -0.7930 L23:   0.4797                                     
   3    S TENSOR                                                          
   3      S11:  -0.0680 S12:  -0.1426 S13:   0.1252                       
   3      S21:   0.1887 S22:   0.0417 S23:  -0.1380                       
   3      S31:  -0.0297 S32:   0.2350 S33:   0.0263                       
   3                                                                      
   3   TLS GROUP : 2                                                      
   3    NUMBER OF COMPONENTS GROUP : 1                                    
   3    COMPONENTS        C SSSEQI   TO  C SSSEQI                         
   3    RESIDUE RANGE :   A    65        A   106                          
   3    ORIGIN FOR THE GROUP (A):  10.6580  -2.2320  12.0810              
   3    T TENSOR                                                          
   3      T11:   0.1160 T22:   0.0434                                     
   3      T33:   0.1006 T12:   0.0085                                     
   3      T13:  -0.0076 T23:   0.0023                                     
   3    L TENSOR                                                          
   3      L11:   1.6231 L22:   1.0717                                     
   3      L33:   0.8719 L12:   0.2735                                     
   3      L13:   0.2643 L23:   0.4127                                     
   3    S TENSOR                                                          
   3      S11:   0.0303 S12:   0.1240 S13:  -0.1417                       
   3      S21:  -0.2382 S22:  -0.0394 S23:   0.1244                       
   3      S31:  -0.0089 S32:  -0.0954 S33:   0.0091                       
   3                                                                      
   3   TLS GROUP : 3                                                      
   3    NUMBER OF COMPONENTS GROUP : 1                                    
   3    COMPONENTS        C SSSEQI   TO  C SSSEQI                         
   3    RESIDUE RANGE :   A   107        A   140                          
   3    ORIGIN FOR THE GROUP (A):  11.3810  -8.6320  10.0790              
   3    T TENSOR                                                          
   3      T11:   0.1108 T22:   0.0527                                     
   3      T33:   0.1011 T12:  -0.0078                                     
   3      T13:   0.0164 T23:  -0.0193                                     
   3    L TENSOR                                                          
   3      L11:   2.7578 L22:   2.5455                                     
   3      L33:   2.0903 L12:   0.3980                                     
   3      L13:   0.3613 L23:  -0.1074                                     
   3    S TENSOR                                                          
   3      S11:   0.0108 S12:   0.2427 S13:  -0.1742                       
   3      S21:  -0.1110 S22:   0.0109 S23:   0.1037                       
   3      S31:   0.1341 S32:  -0.0372 S33:  -0.0217                       
   3                                                                      
   3   TLS GROUP : 4                                                      
   3    NUMBER OF COMPONENTS GROUP : 1                                    
   3    COMPONENTS        C SSSEQI   TO  C SSSEQI                         
   3    RESIDUE RANGE :   A   141        A   167                          
   3    ORIGIN FOR THE GROUP (A):  12.8710  10.0220  14.1850              
   3    T TENSOR                                                          
   3      T11:   0.1100 T22:   0.0453                                     
   3      T33:   0.1389 T12:   0.0273                                     
   3      T13:   0.0043 T23:   0.0283                                     
   3    L TENSOR                                                          
   3      L11:   2.1697 L22:   1.4779                                     
   3      L33:   3.9226 L12:   0.7368                                     
   3      L13:   1.0234 L23:   1.2139                                     
   3    S TENSOR                                                          
   3      S11:  -0.0074 S12:  -0.0176 S13:   0.2172                       
   3      S21:  -0.0814 S22:  -0.0217 S23:   0.0964                       
   3      S31:  -0.2905 S32:  -0.2299 S33:   0.0290                       
   3                                                                      
   3   TLS GROUP : 5                                                      
   3    NUMBER OF COMPONENTS GROUP : 1                                    
   3    COMPONENTS        C SSSEQI   TO  C SSSEQI                         
   3    RESIDUE RANGE :   A   168        A   195                          
   3    ORIGIN FOR THE GROUP (A):  21.0490   7.9500  18.4800              
   3    T TENSOR                                                          
   3      T11:   0.1034 T22:   0.0314                                     
   3      T33:   0.1283 T12:   0.0152                                     
   3      T13:   0.0104 T23:  -0.0220                                     
   3    L TENSOR                                                          
   3      L11:   2.2126 L22:   1.1964                                     
   3      L33:   2.0387 L12:   0.5240                                     
   3      L13:   0.1325 L23:  -0.1794                                     
   3    S TENSOR                                                          
   3      S11:  -0.0854 S12:   0.1273 S13:   0.0876                       
   3      S21:  -0.0929 S22:   0.0330 S23:  -0.1253                       
   3      S31:   0.0092 S32:   0.1030 S33:   0.0524                       
   3                                                                      
   3   TLS GROUP : 6                                                      
   3    NUMBER OF COMPONENTS GROUP : 1                                    
   3    COMPONENTS        C SSSEQI   TO  C SSSEQI                         
   3    RESIDUE RANGE :   A   196        A   215                          
   3    ORIGIN FOR THE GROUP (A):   8.6400  -4.1690  26.4680              
   3    T TENSOR                                                          
   3      T11:   0.0855 T22:   0.0661                                     
   3      T33:   0.0924 T12:  -0.0183                                     
   3      T13:   0.0091 T23:  -0.0138                                     
   3    L TENSOR                                                          
   3      L11:   7.0346 L22:   3.8507                                     
   3      L33:   2.6796 L12:  -4.3595                                     
   3      L13:  -1.9977 L23:   1.3545                                     
   3    S TENSOR                                                          
   3      S11:  -0.1684 S12:  -0.5154 S13:  -0.1348                       
   3      S21:   0.1769 S22:   0.2298 S23:   0.2004                       
   3      S31:   0.0110 S32:  -0.0843 S33:  -0.0614                       
   3                                                                      
   3   TLS GROUP : 7                                                      
   3    NUMBER OF COMPONENTS GROUP : 1                                    
   3    COMPONENTS        C SSSEQI   TO  C SSSEQI                         
   3    RESIDUE RANGE :   A   216        A   237                          
   3    ORIGIN FOR THE GROUP (A):  23.8220  -8.0580  28.0440              
   3    T TENSOR                                                          
   3      T11:   0.1090 T22:   0.0585                                     
   3      T33:   0.1131 T12:   0.0017                                     
   3      T13:   0.0033 T23:   0.0018                                     
   3    L TENSOR                                                          
   3      L11:   2.9726 L22:   2.3388                                     
   3      L33:   7.2012 L12:  -0.9620                                     
   3      L13:   0.4517 L23:   0.0463                                     
   3    S TENSOR                                                          
   3      S11:   0.0335 S12:  -0.3214 S13:  -0.1922                       
   3      S21:   0.3070 S22:   0.0483 S23:   0.0324                       
   3      S31:   0.3037 S32:   0.0689 S33:  -0.0818                       
   3                                                                      
   3   TLS GROUP : 8                                                      
   3    NUMBER OF COMPONENTS GROUP : 1                                    
   3    COMPONENTS        C SSSEQI   TO  C SSSEQI                         
   3    RESIDUE RANGE :   A   238        A   290                          
   3    ORIGIN FOR THE GROUP (A):  28.8540  -1.0040  25.7490              
   3    T TENSOR                                                          
   3      T11:   0.0784 T22:   0.0577                                     
   3      T33:   0.1215 T12:   0.0158                                     
   3      T13:  -0.0123 T23:  -0.0122                                     
   3    L TENSOR                                                          
   3      L11:   2.7809 L22:   1.5053                                     
   3      L33:   3.2594 L12:   0.3604                                     
   3      L13:  -1.3754 L23:  -0.2783                                     
   3    S TENSOR                                                          
   3      S11:   0.0594 S12:  -0.1186 S13:  -0.0184                       
   3      S21:   0.1192 S22:   0.0145 S23:  -0.0876                       
   3      S31:   0.0494 S32:   0.1921 S33:  -0.0738                       
   3                                                                      
   3   TLS GROUP : 9                                                      
   3    NUMBER OF COMPONENTS GROUP : 1                                    
   3    COMPONENTS        C SSSEQI   TO  C SSSEQI                         
   3    RESIDUE RANGE :   B    31        B    81                          
   3    ORIGIN FOR THE GROUP (A):  20.1710  19.4030  47.3400              
   3    T TENSOR                                                          
   3      T11:   0.1149 T22:   0.0480                                     
   3      T33:   0.1287 T12:  -0.0018                                     
   3      T13:   0.0223 T23:   0.0092                                     
   3    L TENSOR                                                          
   3      L11:   0.9410 L22:   0.9576                                     
   3      L33:   1.7515 L12:  -0.2007                                     
   3      L13:   0.6662 L23:   0.2817                                     
   3    S TENSOR                                                          
   3      S11:  -0.0768 S12:   0.0070 S13:  -0.0148                       
   3      S21:  -0.0941 S22:  -0.0076 S23:  -0.1392                       
   3      S31:  -0.0252 S32:   0.0978 S33:   0.0844                       
   3                                                                      
   3   TLS GROUP : 10                                                     
   3    NUMBER OF COMPONENTS GROUP : 1                                    
   3    COMPONENTS        C SSSEQI   TO  C SSSEQI                         
   3    RESIDUE RANGE :   B    82        B    96                          
   3    ORIGIN FOR THE GROUP (A):  -8.3360   9.2770  54.8900              
   3    T TENSOR                                                          
   3      T11:   0.0615 T22:   0.4691                                     
   3      T33:   0.3088 T12:  -0.2146                                     
   3      T13:   0.0494 T23:   0.1767                                     
   3    L TENSOR                                                          
   3      L11:   7.3929 L22:   6.7358                                     
   3      L33:  16.3503 L12:  -3.3542                                     
   3      L13:  -5.4977 L23:   6.1830                                     
   3    S TENSOR                                                          
   3      S11:   0.1150 S12:  -0.1602 S13:  -0.4111                       
   3      S21:  -0.2285 S22:   0.2114 S23:   0.6769                       
   3      S31:  -0.0588 S32:  -1.7192 S33:  -0.3263                       
   3                                                                      
   3   TLS GROUP : 11                                                     
   3    NUMBER OF COMPONENTS GROUP : 1                                    
   3    COMPONENTS        C SSSEQI   TO  C SSSEQI                         
   3    RESIDUE RANGE :   B    97        B   120                          
   3    ORIGIN FOR THE GROUP (A):  -4.4680  21.4550  65.2580              
   3    T TENSOR                                                          
   3      T11:   0.0347 T22:   0.3812                                     
   3      T33:   0.1399 T12:   0.1730                                     
   3      T13:   0.1300 T23:   0.0808                                     
   3    L TENSOR                                                          
   3      L11:   9.7688 L22:   6.8316                                     
   3      L33:  10.5721 L12:   1.7351                                     
   3      L13:   4.7693 L23:   2.2559                                     
   3    S TENSOR                                                          
   3      S11:  -0.1571 S12:  -0.9693 S13:   0.4672                       
   3      S21:   0.5577 S22:   0.2512 S23:   0.6730                       
   3      S31:  -0.4930 S32:  -1.5540 S33:  -0.0941                       
   3                                                                      
   3   TLS GROUP : 12                                                     
   3    NUMBER OF COMPONENTS GROUP : 1                                    
   3    COMPONENTS        C SSSEQI   TO  C SSSEQI                         
   3    RESIDUE RANGE :   B   121        B   155                          
   3    ORIGIN FOR THE GROUP (A):   3.6130  12.1480  57.6350              
   3    T TENSOR                                                          
   3      T11:   0.0601 T22:   0.1805                                     
   3      T33:   0.1437 T12:  -0.0817                                     
   3      T13:   0.0242 T23:   0.0396                                     
   3    L TENSOR                                                          
   3      L11:   1.8870 L22:   3.0679                                     
   3      L33:   3.6733 L12:  -0.2189                                     
   3      L13:  -0.4276 L23:   0.0977                                     
   3    S TENSOR                                                          
   3      S11:  -0.1766 S12:  -0.1800 S13:  -0.2270                       
   3      S21:   0.2148 S22:   0.3246 S23:   0.2117                       
   3      S31:   0.3242 S32:  -0.6597 S33:  -0.1480                       
   3                                                                      
   3   TLS GROUP : 13                                                     
   3    NUMBER OF COMPONENTS GROUP : 1                                    
   3    COMPONENTS        C SSSEQI   TO  C SSSEQI                         
   3    RESIDUE RANGE :   B   156        B   195                          
   3    ORIGIN FOR THE GROUP (A):  15.4010  12.2660  56.0400              
   3    T TENSOR                                                          
   3      T11:   0.1177 T22:   0.0318                                     
   3      T33:   0.1221 T12:  -0.0078                                     
   3      T13:   0.0318 T23:  -0.0030                                     
   3    L TENSOR                                                          
   3      L11:   1.6757 L22:   1.0927                                     
   3      L33:   2.9473 L12:  -0.0450                                     
   3      L13:  -0.0454 L23:  -0.6375                                     
   3    S TENSOR                                                          
   3      S11:  -0.0335 S12:  -0.1528 S13:  -0.0977                       
   3      S21:   0.0365 S22:   0.0027 S23:  -0.0705                       
   3      S31:   0.0624 S32:  -0.0864 S33:   0.0307                       
   3                                                                      
   3   TLS GROUP : 14                                                     
   3    NUMBER OF COMPONENTS GROUP : 1                                    
   3    COMPONENTS        C SSSEQI   TO  C SSSEQI                         
   3    RESIDUE RANGE :   B   196        B   205                          
   3    ORIGIN FOR THE GROUP (A):   0.4590   8.9690  41.3360              
   3    T TENSOR                                                          
   3      T11:   0.2347 T22:   0.2997                                     
   3      T33:   0.2272 T12:  -0.1715                                     
   3      T13:  -0.0404 T23:  -0.0460                                     
   3    L TENSOR                                                          
   3      L11:  16.5826 L22:   7.3660                                     
   3      L33:   8.6615 L12:  -2.6863                                     
   3      L13:  -0.8639 L23:   5.3312                                     
   3    S TENSOR                                                          
   3      S11:  -0.0969 S12:   1.1971 S13:  -0.8482                       
   3      S21:  -1.3532 S22:   0.4663 S23:   0.2015                       
   3      S31:   0.8333 S32:  -1.0459 S33:  -0.3694                       
   3                                                                      
   3   TLS GROUP : 15                                                     
   3    NUMBER OF COMPONENTS GROUP : 1                                    
   3    COMPONENTS        C SSSEQI   TO  C SSSEQI                         
   3    RESIDUE RANGE :   B   206        B   265                          
   3    ORIGIN FOR THE GROUP (A):   9.6810  23.9840  45.1800              
   3    T TENSOR                                                          
   3      T11:   0.1115 T22:   0.0642                                     
   3      T33:   0.1235 T12:   0.0188                                     
   3      T13:  -0.0017 T23:   0.0045                                     
   3    L TENSOR                                                          
   3      L11:   1.9125 L22:   1.6732                                     
   3      L33:   2.2281 L12:   0.5104                                     
   3      L13:   0.5654 L23:   0.1629                                     
   3    S TENSOR                                                          
   3      S11:  -0.0435 S12:   0.1351 S13:   0.0411                       
   3      S21:  -0.1588 S22:   0.0436 S23:   0.1577                       
   3      S31:  -0.1550 S32:  -0.2784 S33:  -0.0000                       
   3                                                                      
   3   TLS GROUP : 16                                                     
   3    NUMBER OF COMPONENTS GROUP : 1                                    
   3    COMPONENTS        C SSSEQI   TO  C SSSEQI                         
   3    RESIDUE RANGE :   B   266        B   290                          
   3    ORIGIN FOR THE GROUP (A):  21.4030  28.8680  50.6200              
   3    T TENSOR                                                          
   3      T11:   0.1304 T22:   0.0209                                     
   3      T33:   0.1571 T12:  -0.0182                                     
   3      T13:  -0.0013 T23:   0.0146                                     
   3    L TENSOR                                                          
   3      L11:   2.7814 L22:   2.7465                                     
   3      L33:   4.6549 L12:   0.5072                                     
   3      L13:   0.8202 L23:  -0.1631                                     
   3    S TENSOR                                                          
   3      S11:  -0.0014 S12:   0.0194 S13:   0.1662                       
   3      S21:   0.1176 S22:  -0.0051 S23:  -0.1098                       
   3      S31:  -0.1759 S32:   0.0144 S33:   0.0065                       
   3                                                                      
   3  BULK SOLVENT MODELLING.                                             
   3   METHOD USED : MASK                                                 
   3   PARAMETERS FOR MASK CALCULATION                                    
   3   VDW PROBE RADIUS   : 1.40                                          
   3   ION PROBE RADIUS   : 0.80                                          
   3   SHRINKAGE RADIUS   : 0.80                                          
   3                                                                      
   3  OTHER REFINEMENT REMARKS: HYDROGENS HAVE BEEN ADDED IN THE          
   3   RIDING POSITIONS.                                                  
   4                                                                      
   4 2X71 COMPLIES WITH FORMAT V. 3.30, 13-JUL-11                         
 100                                                                      
 100 THIS ENTRY HAS BEEN PROCESSED BY PDBE ON 22-FEB-10.                  
 100 THE PDBE ID CODE IS EBI-43005.                                       
 200                                                                      
 200 EXPERIMENTAL DETAILS                                                 
 200  EXPERIMENT TYPE                : X-RAY DIFFRACTION                  
 200  DATE OF DATA COLLECTION        : 15-OCT-08                          
 200  TEMPERATURE           (KELVIN) : 100                                
 200  PH                             : 4                                  
 200  NUMBER OF CRYSTALS USED        : 1                                  
 200                                                                      
 200  SYNCHROTRON              (Y/N) : Y                                  
 200  RADIATION SOURCE               : ESRF                               
 200  BEAMLINE                       : BM30A                              
 200  X-RAY GENERATOR MODEL          : NULL                               
 200  MONOCHROMATIC OR LAUE    (M/L) : M                                  
 200  WAVELENGTH OR RANGE        (A) : 0.979746                           
 200  MONOCHROMATOR                  : NULL                               
 200  OPTICS                         : NULL                               
 200                                                                      
 200  DETECTOR TYPE                  : NULL                               
 200  DETECTOR MANUFACTURER          : NULL                               
 200  INTENSITY-INTEGRATION SOFTWARE : MOSFLM                             
 200  DATA SCALING SOFTWARE          : SCALA                              
 200                                                                      
 200  NUMBER OF UNIQUE REFLECTIONS   : 34702                              
 200  RESOLUTION RANGE HIGH      (A) : 2.10                               
 200  RESOLUTION RANGE LOW       (A) : 34.70                              
 200  REJECTION CRITERIA  (SIGMA(I)) : 2.0                                
 200                                                                      
 200 OVERALL.                                                             
 200  COMPLETENESS FOR RANGE     (%) : 99.3                               
 200  DATA REDUNDANCY                : 3.6                                
 200  R MERGE                    (I) : 0.11                               
 200  R SYM                      (I) : NULL                               
 200  <I/SIGMA(I)> FOR THE DATA SET  : 10.80                              
 200                                                                      
 200 IN THE HIGHEST RESOLUTION SHELL.                                     
 200  HIGHEST RESOLUTION SHELL, RANGE HIGH (A) : 2.10                     
 200  HIGHEST RESOLUTION SHELL, RANGE LOW  (A) : 2.21                     
 200  COMPLETENESS FOR SHELL     (%) : 98.9                               
 200  DATA REDUNDANCY IN SHELL       : 3.7                                
 200  R MERGE FOR SHELL          (I) : 0.39                               
 200  R SYM FOR SHELL            (I) : NULL                               
 200  <I/SIGMA(I)> FOR SHELL         : 2.50                               
 200                                                                      
 200 DIFFRACTION PROTOCOL: SINGLE WAVELENGTH                              
 200 METHOD USED TO DETERMINE THE STRUCTURE: MOLECULAR REPLACEMENT        
 200 SOFTWARE USED: NULL                                                  
 200 STARTING MODEL: PDB ENTRY 2WK0                                       
 200                                                                      
 200 REMARK: NONE                                                         
 280                                                                      
 280 CRYSTAL                                                              
 280 SOLVENT CONTENT, VS   (%): 52.27                                     
 280 MATTHEWS COEFFICIENT, VM (ANGSTROMS**3/DA): 2.58                     
 280                                                                      
 280 CRYSTALLIZATION CONDITIONS: NULL                                     
 290                                                                      
 290 CRYSTALLOGRAPHIC SYMMETRY                                            
 290 SYMMETRY OPERATORS FOR SPACE GROUP: P 1 21 1                         
 290                                                                      
 290      SYMOP   SYMMETRY                                                
 290     NNNMMM   OPERATOR                                                
 290       1555   X,Y,Z                                                   
 290       2555   -X,Y+1/2,-Z                                             
 290                                                                      
 290     WHERE NNN -> OPERATOR NUMBER                                     
 290           MMM -> TRANSLATION VECTOR                                  
 290                                                                      
 290 CRYSTALLOGRAPHIC SYMMETRY TRANSFORMATIONS                            
 290 THE FOLLOWING TRANSFORMATIONS OPERATE ON THE ATOM/HETATM             
 290 RECORDS IN THIS ENTRY TO PRODUCE CRYSTALLOGRAPHICALLY                
 290 RELATED MOLECULES.                                                   
 290   SMTRY1   1  1.000000  0.000000  0.000000        0.00000            
 290   SMTRY2   1  0.000000  1.000000  0.000000        0.00000            
 290   SMTRY3   1  0.000000  0.000000  1.000000        0.00000            
 290   SMTRY1   2 -1.000000  0.000000  0.000000        0.00000            
 290   SMTRY2   2  0.000000  1.000000  0.000000       52.04450            
 290   SMTRY3   2  0.000000  0.000000 -1.000000        0.00000            
 290                                                                      
 290 REMARK: NULL                                                         
 300                                                                      
 300 BIOMOLECULE: 1, 2                                                    
 300 SEE REMARK 350 FOR THE AUTHOR PROVIDED AND/OR PROGRAM                
 300 GENERATED ASSEMBLY INFORMATION FOR THE STRUCTURE IN                  
 300 THIS ENTRY. THE REMARK MAY ALSO PROVIDE INFORMATION ON               
 300 BURIED SURFACE AREA.                                                 
 350                                                                      
 350 COORDINATES FOR A COMPLETE MULTIMER REPRESENTING THE KNOWN           
 350 BIOLOGICALLY SIGNIFICANT OLIGOMERIZATION STATE OF THE                
 350 MOLECULE CAN BE GENERATED BY APPLYING BIOMT TRANSFORMATIONS          
 350 GIVEN BELOW. BOTH NON-CRYSTALLOGRAPHIC AND                           
 350 CRYSTALLOGRAPHIC OPERATIONS ARE GIVEN.                               
 350                                                                      
 350 BIOMOLECULE: 1                                                       
 350 AUTHOR DETERMINED BIOLOGICAL UNIT: MONOMERIC                         
 350 SOFTWARE DETERMINED QUATERNARY STRUCTURE: MONOMERIC                  
 350 SOFTWARE USED: PISA                                                  
 350 APPLY THE FOLLOWING TO CHAINS: A                                     
 350   BIOMT1   1  1.000000  0.000000  0.000000        0.00000            
 350   BIOMT2   1  0.000000  1.000000  0.000000        0.00000            
 350   BIOMT3   1  0.000000  0.000000  1.000000        0.00000            
 350                                                                      
 350 BIOMOLECULE: 2                                                       
 350 AUTHOR DETERMINED BIOLOGICAL UNIT: MONOMERIC                         
 350 SOFTWARE DETERMINED QUATERNARY STRUCTURE: MONOMERIC                  
 350 SOFTWARE USED: PISA                                                  
 350 APPLY THE FOLLOWING TO CHAINS:  B                                    
 350   BIOMT1   1  1.000000  0.000000  0.000000        0.00000            
 350   BIOMT2   1  0.000000  1.000000  0.000000        0.00000            
 350   BIOMT3   1  0.000000  0.000000  1.000000        0.00000            
 465                                                                      
 465 MISSING RESIDUES                                                     
 465 THE FOLLOWING RESIDUES WERE NOT LOCATED IN THE                       
 465 EXPERIMENT. (M=MODEL NUMBER; RES=RESIDUE NAME; C=CHAIN               
 465 IDENTIFIER; SSSEQ=SEQUENCE NUMBER; I=INSERTION CODE.)                
 465                                                                      
 465   M RES C SSSEQI                                                     
 465     LYS A    26                                                      
 465     THR A    27                                                      
 465     GLU A    28                                                      
 465     MET A    29                                                      
 465     LYS A    30                                                      
 465     ASN A   291                                                      
 465     MET A   292                                                      
 465     ASN A   293                                                      
 465     GLY A   294                                                      
 465     LYS A   295                                                      
 465     LYS B    26                                                      
 465     THR B    27                                                      
 465     GLU B    28                                                      
 465     MET B    29                                                      
 465     LYS B    30                                                      
 465     ASN B   291                                                      
 465     MET B   292                                                      
 465     ASN B   293                                                      
 465     GLY B   294                                                      
 465     LYS B   295                                                      
 500                                                                      
 500 GEOMETRY AND STEREOCHEMISTRY                                         
 500 SUBTOPIC: CLOSE CONTACTS IN SAME ASYMMETRIC UNIT                     
 500                                                                      
 500 THE FOLLOWING ATOMS ARE IN CLOSE CONTACT.                            
 500                                                                      
 500  ATM1  RES C  SSEQI   ATM2  RES C  SSEQI           DISTANCE          
 500   OE2  GLU B   171     O    HOH B  2077              2.04            
 500                                                                      
 500 REMARK: NULL                                                         
 500                                                                      
 500 GEOMETRY AND STEREOCHEMISTRY                                         
 500 SUBTOPIC: TORSION ANGLES                                             
 500                                                                      
 500 TORSION ANGLES OUTSIDE THE EXPECTED RAMACHANDRAN REGIONS:            
 500 (M=MODEL NUMBER; RES=RESIDUE NAME; C=CHAIN IDENTIFIER;               
 500 SSEQ=SEQUENCE NUMBER; I=INSERTION CODE).                             
 500                                                                      
 500 STANDARD TABLE:                                                      
 500 FORMAT:(10X,I3,1X,A3,1X,A1,I4,A1,4X,F7.2,3X,F7.2)                    
 500                                                                      
 500 EXPECTED VALUES: GJ KLEYWEGT AND TA JONES (1996). PHI/PSI-           
 500 CHOLOGY: RAMACHANDRAN REVISITED. STRUCTURE 4, 1395 - 1400            
 500                                                                      
 500  M RES CSSEQI        PSI       PHI                                   
 500    TYR A  60      114.29   -160.11                                   
 500    ALA A  69     -142.40     48.90                                   
 500    VAL A 103     -137.83   -108.64                                   
 500    TYR A 105       88.90   -150.13                                   
 500    LEU A 220     -118.78   -105.01                                   
 500    TYR B  60      115.97   -163.00                                   
 500    ALA B  69     -142.67     54.61                                   
 500    VAL B 103     -134.74   -104.63                                   
 500    GLU B 196     -158.96    -91.70                                   
 500    LEU B 220     -121.93   -107.63                                   
 500                                                                      
 500 REMARK: NULL                                                         
 610                                                                      
 610 MISSING HETEROATOM                                                   
 610 THE FOLLOWING RESIDUES HAVE MISSING ATOMS (M=MODEL NUMBER;           
 610 RES=RESIDUE NAME; C=CHAIN IDENTIFIER; SSEQ=SEQUENCE NUMBER;          
 610 I=INSERTION CODE):                                                   
 610   M RES C SSEQI                                                      
 610     L4C A 1291                                                       
 800                                                                      
 800 SITE                                                                 
 800 SITE_IDENTIFIER: AC1                                                 
 800 EVIDENCE_CODE: SOFTWARE                                              
 800 SITE_DESCRIPTION: BINDING SITE FOR RESIDUE L4C A1291                 
 800                                                                      
 800 SITE_IDENTIFIER: AC2                                                 
 800 EVIDENCE_CODE: SOFTWARE                                              
 800 SITE_DESCRIPTION: BINDING SITE FOR RESIDUE SO4 B1291                 
 800                                                                      
 800 SITE_IDENTIFIER: AC3                                                 
 800 EVIDENCE_CODE: SOFTWARE                                              
 800 SITE_DESCRIPTION: BINDING SITE FOR RESIDUE EOH A1292                 
 800                                                                      
 800 SITE_IDENTIFIER: AC4                                                 
 800 EVIDENCE_CODE: SOFTWARE                                              
 800 SITE_DESCRIPTION: BINDING SITE FOR RESIDUE EOH A1293                 
 800                                                                      
 800 SITE_IDENTIFIER: AC5                                                 
 800 EVIDENCE_CODE: SOFTWARE                                              
 800 SITE_DESCRIPTION: BINDING SITE FOR RESIDUE EOH B1292                 
 800                                                                      
 800 SITE_IDENTIFIER: AC6                                                 
 800 EVIDENCE_CODE: SOFTWARE                                              
 800 SITE_DESCRIPTION: BINDING SITE FOR RESIDUE EOH B1293                 

>  <DBREF>
 2X71 A   26   295  UNP    P94458   P94458_BACLI     1    265             
 2X71 B   26   295  UNP    P94458   P94458_BACLI     1    265             

>  <SEQRES>
   1 A  265  LYS THR GLU MET LYS ASP ASP PHE ALA LYS LEU GLU GLU          
   2 A  265  GLN PHE ASP ALA LYS LEU GLY ILE PHE ALA LEU ASP THR          
   3 A  265  GLY THR ASN ARG THR VAL THR TYR ARG PRO ASP GLU ARG          
   4 A  265  PHE ALA PHE ALA SER THR ILE LYS ALA LEU THR VAL GLY          
   5 A  265  VAL LEU LEU GLN GLN LYS SER ILE GLU ASP LEU ASN GLN          
   6 A  265  ARG ILE THR TYR THR ARG ASP ASP LEU VAL ASN TYR ASN          
   7 A  265  PRO ILE THR GLU LYS HIS VAL ASP THR GLY MET THR LEU          
   8 A  265  LYS GLU LEU ALA ASP ALA SER LEU ARG TYR SER ASP ASN          
   9 A  265  THR ALA GLN ASN LEU ILE LEU LYS GLN ILE GLY GLY PRO          
  10 A  265  GLU SER LEU LYS LYS GLU LEU ARG LYS ILE GLY ASP GLU          
  11 A  265  VAL THR ASN PRO GLU ARG PHE GLU PRO GLU LEU ASN GLU          
  12 A  265  VAL ASN PRO GLY GLU THR GLN ASP THR SER THR ALA ARG          
  13 A  265  ALA LEU ALA THR SER LEU GLN ALA PHE ALA LEU GLU ASP          
  14 A  265  LYS LEU PRO SER GLU LYS ARG GLU LEU LEU ILE ASP TRP          
  15 A  265  MET LYS ARG ASN THR THR GLY ASP ALA LEU ILE ARG ALA          
  16 A  265  GLY VAL PRO GLU GLY TRP GLU VAL ALA ASP LYS THR GLY          
  17 A  265  ALA GLY SER TYR GLY THR ARG ASN ASP ILE ALA ILE ILE          
  18 A  265  TRP PRO PRO LYS GLY ASP PRO VAL VAL LEU ALA VAL LEU          
  19 A  265  SER SER ARG ASP LYS LYS ASP ALA LYS TYR ASP ASP LYS          
  20 A  265  LEU ILE ALA GLU ALA THR LYS VAL VAL VAL LYS ALA LEU          
  21 A  265  ASN MET ASN GLY LYS                                          
   1 B  265  LYS THR GLU MET LYS ASP ASP PHE ALA LYS LEU GLU GLU          
   2 B  265  GLN PHE ASP ALA LYS LEU GLY ILE PHE ALA LEU ASP THR          
   3 B  265  GLY THR ASN ARG THR VAL THR TYR ARG PRO ASP GLU ARG          
   4 B  265  PHE ALA PHE ALA SER THR ILE LYS ALA LEU THR VAL GLY          
   5 B  265  VAL LEU LEU GLN GLN LYS SER ILE GLU ASP LEU ASN GLN          
   6 B  265  ARG ILE THR TYR THR ARG ASP ASP LEU VAL ASN TYR ASN          
   7 B  265  PRO ILE THR GLU LYS HIS VAL ASP THR GLY MET THR LEU          
   8 B  265  LYS GLU LEU ALA ASP ALA SER LEU ARG TYR SER ASP ASN          
   9 B  265  THR ALA GLN ASN LEU ILE LEU LYS GLN ILE GLY GLY PRO          
  10 B  265  GLU SER LEU LYS LYS GLU LEU ARG LYS ILE GLY ASP GLU          
  11 B  265  VAL THR ASN PRO GLU ARG PHE GLU PRO GLU LEU ASN GLU          
  12 B  265  VAL ASN PRO GLY GLU THR GLN ASP THR SER THR ALA ARG          
  13 B  265  ALA LEU ALA THR SER LEU GLN ALA PHE ALA LEU GLU ASP          
  14 B  265  LYS LEU PRO SER GLU LYS ARG GLU LEU LEU ILE ASP TRP          
  15 B  265  MET LYS ARG ASN THR THR GLY ASP ALA LEU ILE ARG ALA          
  16 B  265  GLY VAL PRO GLU GLY TRP GLU VAL ALA ASP LYS THR GLY          
  17 B  265  ALA GLY SER TYR GLY THR ARG ASN ASP ILE ALA ILE ILE          
  18 B  265  TRP PRO PRO LYS GLY ASP PRO VAL VAL LEU ALA VAL LEU          
  19 B  265  SER SER ARG ASP LYS LYS ASP ALA LYS TYR ASP ASP LYS          
  20 B  265  LEU ILE ALA GLU ALA THR LYS VAL VAL VAL LYS ALA LEU          
  21 B  265  ASN MET ASN GLY LYS                                          

>  <HET>
 L4C  A1291      19                                                       
 EOH  A1292       3                                                       
 EOH  A1293       3                                                       
 SO4  B1291       5                                                       
 EOH  B1292       3                                                       
 EOH  B1293       3                                                       

>  <HETNAM>
     L4C (2E)-2-{[(2S)-2-(ACETYLAMINO)-2-                                 
   2 L4C  CARBOXYETHOXY]IMINO}PENTANEDIOIC ACID                           
     EOH ETHANOL                                                          
     SO4 SULFATE ION                                                      

>  <HETSYN>
     L4C LACTIVICIN                                                       

>  <FORMUL>
   3  L4C    C10 H14 N2 O8                                                
   4  EOH    4(C2 H6 O)                                                   
   5  SO4    O4 S 2-                                                      
   6  HOH   *304(H2 O)                                                    

>  <HELIX>
   1   1 ASP A   31  ASP A   41  1                                  11    
   2   2 THR A   71  LYS A   86  1                                  14    
   3   3 ILE A   88  ASN A   92  5                                   5    
   4   4 ILE A  108  HIS A  112  5                                   5    
   5   5 LEU A  119  SER A  130  1                                  12    
   6   6 ASP A  131  ILE A  142  1                                  12    
   7   7 GLY A  144  ILE A  155  1                                  12    
   8   8 PRO A  167  GLU A  171  5                                   5    
   9   9 ALA A  183  GLU A  196  1                                  14    
  10  10 PRO A  200  ARG A  213  1                                  14    
  11  11 LEU A  220  VAL A  225  5                                   6    
  12  12 ASP A  276  LEU A  290  1                                  15    
  13  13 ASP B   31  ASP B   41  1                                  11    
  14  14 THR B   71  LYS B   86  1                                  14    
  15  15 GLU B   89  ASN B   92  5                                   4    
  16  16 ILE B  108  HIS B  112  5                                   5    
  17  17 LEU B  119  SER B  130  1                                  12    
  18  18 ASP B  131  ILE B  142  1                                  12    
  19  19 GLY B  143  ILE B  155  1                                  13    
  20  20 PRO B  167  GLU B  171  5                                   5    
  21  21 ALA B  183  LEU B  195  1                                  13    
  22  22 PRO B  200  ARG B  213  1                                  14    
  23  23 LEU B  220  VAL B  225  5                                   6    
  24  24 ASP B  275  LEU B  290  1                                  16    

>  <SHEET>
   1  AA 5 THR A  56  TYR A  60  0                                        
   2  AA 5 LYS A  43  ASP A  50 -1  O  ILE A  46   N  TYR A  60           
   3  AA 5 VAL A 259  SER A 266 -1  O  VAL A 260   N  LEU A  49           
   4  AA 5 ARG A 244  TRP A 251 -1  N  ARG A 244   O  SER A 265           
   5  AA 5 GLU A 230  ALA A 237 -1  O  GLU A 230   N  TRP A 251           
   1  AB 2 ARG A  65  ALA A  67  0                                        
   2  AB 2 THR A 180  THR A 182 -1  O  SER A 181   N  PHE A  66           
   1  AC 2 ARG A  94  ILE A  95  0                                        
   2  AC 2 MET A 117  THR A 118 -1  O  MET A 117   N  ILE A  95           
   1  BA 5 THR B  56  TYR B  60  0                                        
   2  BA 5 LYS B  43  ASP B  50 -1  O  ILE B  46   N  TYR B  60           
   3  BA 5 VAL B 259  SER B 266 -1  O  VAL B 260   N  LEU B  49           
   4  BA 5 THR B 243  TRP B 251 -1  N  ARG B 244   O  SER B 265           
   5  BA 5 GLU B 230  GLY B 238 -1  O  GLU B 230   N  TRP B 251           
   1  BB 2 ARG B  65  ALA B  67  0                                        
   2  BB 2 THR B 180  THR B 182 -1  O  SER B 181   N  PHE B  66           
   1  BC 2 ARG B  94  ILE B  95  0                                        
   2  BC 2 MET B 117  THR B 118 -1  O  MET B 117   N  ILE B  95           

>  <LINK>
       OG  SER A  70                 C4  L4C A1291     1555   1555  1.39  

>  <CISPEP>
   1 GLU A  166    PRO A  167          0        -0.92                     
   2 GLU B  166    PRO B  167          0         0.39                     

>  <SITE>
   1 AC1 14 SER A  70  ASN A 104  TYR A 105  SER A 130                    
   2 AC1 14 ASN A 132  ASN A 170  THR A 216  LYS A 234                    
   3 AC1 14 THR A 235  GLY A 236  ALA A 237  ARG A 244                    
   4 AC1 14 HOH A2091  HOH A2135                                          
   1 AC2  8 SER B  70  SER B 130  LYS B 234  THR B 235                    
   2 AC2  8 GLY B 236  ALA B 237  ARG B 244  HOH B2034                    
   1 AC3  7 LYS A 140  GLY A 143  GLY A 144  PHE A 165                    
   2 AC3  7 GLY B 143  GLY B 144  PHE B 165                               
   1 AC4  3 LYS A 288  ALA A 289  HOH A2167                               
   1 AC5  2 LYS B 288  LEU B 290                                          
   1 AC6  3 LYS B 273  TYR B 274  HOH B2137                               

>  <ORIGX1>
      1.000000  0.000000  0.000000        0.00000                         

>  <ORIGX2>
      0.000000  1.000000  0.000000        0.00000                         

>  <ORIGX3>
      0.000000  0.000000  1.000000        0.00000                         

>  <SCALE1>
      0.021435  0.000000  0.001668        0.00000                         

>  <SCALE2>
      0.000000  0.009607  0.000000        0.00000                         

>  <SCALE3>
      0.000000  0.000000  0.015962        0.00000                         

>  <MASTER>
      615    0    6   24   18    0   11    6 4328    2   37   42          

$$$$
