start_structures/Ligand_Substrate/Ligand_Complex_Stripped/LCE_3LCE.pdb
 OpenBabel08222315213D

 27 22  0  0  1  0  0  0  0  0999 V2000
   19.4560    6.6580   35.7560 N   0  0  0  0  0  0  0  0  0  0  0  0
   19.3430    6.6780   35.7120 N   0  0  0  0  0  0  0  0  0  0  0  0
   18.2530    7.4880   35.8530 C   0  0  0  0  0  0  0  0  0  0  0  0
   18.1810    7.5600   35.7000 C   0  0  0  0  0  0  0  0  0  0  0  0
   18.2190    8.5340   36.9700 C   0  0  0  0  0  0  0  0  0  0  0  0
   18.1830    8.4030   36.9650 C   0  0  0  0  0  0  0  0  0  0  0  0
   17.3540    9.4010   36.9690 O   0  0  0  0  0  0  0  0  0  0  0  0
   17.4810    9.3910   37.0370 O   0  0  0  0  0  0  0  0  0  0  0  0
   16.9800    6.6390   35.8700 C   0  0  0  0  0  0  0  0  0  0  0  0
   16.8800    6.7470   35.6770 C   0  0  0  0  0  0  0  0  0  0  0  0
   16.5020    6.4470   34.5490 O   0  0  0  0  0  0  0  0  0  0  0  0
   16.8170    5.8990   34.4940 O   0  0  0  0  0  0  0  0  0  0  0  0
   13.4730    0.7340   37.4450 C   0  0  0  0  0  0  0  0  0  0  0  0
   16.5880    3.2070   38.5160 O   0  0  0  0  0  0  0  0  0  0  0  0
   14.5700    3.3970   37.7440 O   0  0  0  0  0  0  0  0  0  0  0  0
   18.3460    4.0900   35.3120 O   0  0  0  0  0  0  0  0  0  0  0  0
   17.2190    4.4960   32.1470 Cl  0  0  0  0  0  0  0  0  0  0  0  0
   17.8020    1.9810   33.5270 Cl  0  0  0  0  0  0  0  0  0  0  0  0
   13.9770    1.8130   36.6430 O   0  0  0  0  0  0  0  0  0  0  0  0
   15.3490    1.3280   34.2900 S   0  0  0  0  0  0  0  0  0  0  0  0
   15.7420    3.1210   37.6450 C   0  0  0  0  0  0  0  0  0  0  0  0
   15.2640    1.4280   36.0880 C   0  0  1  0  0  0  0  0  0  0  0  0
   15.4620    3.1380   33.9300 C   0  0  1  0  0  0  0  0  0  0  0  0
   16.1540    2.6370   36.3040 C   0  0  1  0  0  0  0  0  0  0  0  0
   15.7670    3.7450   35.3240 C   0  0  1  0  0  0  0  0  0  0  0  0
   16.8920    3.5400   33.5640 C   0  0  0  0  0  0  0  0  0  0  0  0
   17.0470    4.4430   34.7680 C   0  0  1  0  0  0  0  0  0  0  0  0
  2  3  1  0  0  0  0
  4  9  1  0  0  0  0
  5  8  2  0  0  0  0
 11 10  1  0  0  0  0
 12 27  1  0  0  0  0
 12 11  1  0  0  0  0
 13 19  1  0  0  0  0
 14 21  2  0  0  0  0
 15 21  1  0  0  0  0
 16 27  1  0  0  0  0
 17 26  1  0  0  0  0
 18 26  1  0  0  0  0
 20 22  1  0  0  0  0
 22 19  1  6  0  0  0
 22 24  1  0  0  0  0
 23 20  1  1  0  0  0
 23 25  1  0  0  0  0
 23 26  1  0  0  0  0
 24 21  1  1  0  0  0
 24 25  1  0  0  0  0
 25 27  1  0  0  0  0
 26 27  1  0  0  0  0
M  END
>  <HEADER>
    HYDROLASE                               10-JAN-10   3LCE              

>  <TITLE>
    CRYSTAL STRUCTURE OF OXA-10 BETA-LACTAMASE COVALENTLY BOUND           
   2 TO CYCLOBUTANONE BETA-LACTAM MIMIC                                   

>  <COMPND>
    MOL_ID: 1;                                                            
   2 MOLECULE: BETA-LACTAMASE OXA-10;                                     
   3 CHAIN: A, B, C, D;                                                   
   4 SYNONYM: BETA-LACTAMASE PSE-2;                                       
   5 EC: 3.5.2.6                                                          

>  <SOURCE>
    MOL_ID: 1;                                                            
   2 ORGANISM_SCIENTIFIC: PSEUDOMONAS AERUGINOSA;                         
   3 ORGANISM_TAXID: 287;                                                 
   4 STRAIN: AH                                                           

>  <KEYWDS>
    BETA-LACTAMASE, BETA-LACTAMASE INHIBITOR, BETA-LACTAM MIMIC,          
   2 CYCLOBUTANONE, HEMIKETAL, ANTIBIOTIC RESISTANCE, DISULFIDE           
   3 BOND, HYDROLASE, PLASMID, TRANSPOSABLE ELEMENT                       

>  <EXPDTA>
    X-RAY DIFFRACTION                                                     

>  <AUTHOR>
    M.GRETES,N.C.J.STRYNADKA                                              

>  <REVDAT>
   1   09-MAR-10 3LCE    0                                                

>  <JRNL>
      AUTH   J.W.JOHNSON,M.GRETES,V.J.GOODFELLOW,L.MARRONE,               
      AUTH 2 M.L.HEYNEN,N.C.STRYNADKA,G.I.DMITRIENKO                      
      TITL   CYCLOBUTANONE ANALOGUES OF BETA-LACTAMS REVISITED:           
      TITL 2 INSIGHTS INTO CONFORMATIONAL REQUIREMENTS FOR                
      TITL 3 INHIBITION OF SERINE- AND METALLO-BETA-LACTAMASES.           
      REF    J.AM.CHEM.SOC.                V. 132  2558 2010              
      REFN                   ISSN 0002-7863                               
      PMID   20141132                                                     
      DOI    10.1021/JA9086374                                            

>  <REMARK>
   2                                                                      
   2 RESOLUTION.    2.00 ANGSTROMS.                                       
   3                                                                      
   3 REFINEMENT.                                                          
   3   PROGRAM     : REFMAC 5.5.0066                                      
   3   AUTHORS     : MURSHUDOV,VAGIN,DODSON                               
   3                                                                      
   3    REFINEMENT TARGET : MAXIMUM LIKELIHOOD                            
   3                                                                      
   3  DATA USED IN REFINEMENT.                                            
   3   RESOLUTION RANGE HIGH (ANGSTROMS) : 2.00                           
   3   RESOLUTION RANGE LOW  (ANGSTROMS) : 102.06                         
   3   DATA CUTOFF            (SIGMA(F)) : 0.000                          
   3   COMPLETENESS FOR RANGE        (%) : 99.4                           
   3   NUMBER OF REFLECTIONS             : 73266                          
   3                                                                      
   3  FIT TO DATA USED IN REFINEMENT.                                     
   3   CROSS-VALIDATION METHOD          : THROUGHOUT                      
   3   FREE R VALUE TEST SET SELECTION  : RANDOM                          
   3   R VALUE     (WORKING + TEST SET) : 0.181                           
   3   R VALUE            (WORKING SET) : 0.178                           
   3   FREE R VALUE                     : 0.233                           
   3   FREE R VALUE TEST SET SIZE   (%) : 5.000                           
   3   FREE R VALUE TEST SET COUNT      : 3651                            
   3                                                                      
   3  FIT IN THE HIGHEST RESOLUTION BIN.                                  
   3   TOTAL NUMBER OF BINS USED           : 20                           
   3   BIN RESOLUTION RANGE HIGH       (A) : 2.00                         
   3   BIN RESOLUTION RANGE LOW        (A) : 2.05                         
   3   REFLECTION IN BIN     (WORKING SET) : 5121                         
   3   BIN COMPLETENESS (WORKING+TEST) (%) : 99.17                        
   3   BIN R VALUE           (WORKING SET) : 0.2300                       
   3   BIN FREE R VALUE SET COUNT          : 268                          
   3   BIN FREE R VALUE                    : 0.3010                       
   3                                                                      
   3  NUMBER OF NON-HYDROGEN ATOMS USED IN REFINEMENT.                    
   3   PROTEIN ATOMS            : 7862                                    
   3   NUCLEIC ACID ATOMS       : 0                                       
   3   HETEROGEN ATOMS          : 106                                     
   3   SOLVENT ATOMS            : 917                                     
   3                                                                      
   3  B VALUES.                                                           
   3   FROM WILSON PLOT           (A**2) : NULL                           
   3   MEAN B VALUE      (OVERALL, A**2) : 20.05                          
   3   OVERALL ANISOTROPIC B VALUE.                                       
   3    B11 (A**2) : 0.24000                                              
   3    B22 (A**2) : -0.12000                                             
   3    B33 (A**2) : -0.20000                                             
   3    B12 (A**2) : -0.00000                                             
   3    B13 (A**2) : -0.48000                                             
   3    B23 (A**2) : 0.00000                                              
   3                                                                      
   3  ESTIMATED OVERALL COORDINATE ERROR.                                 
   3   ESU BASED ON R VALUE                            (A): 0.185         
   3   ESU BASED ON FREE R VALUE                       (A): 0.169         
   3   ESU BASED ON MAXIMUM LIKELIHOOD                 (A): 0.105         
   3   ESU FOR B VALUES BASED ON MAXIMUM LIKELIHOOD (A**2): 3.682         
   3                                                                      
   3 CORRELATION COEFFICIENTS.                                            
   3   CORRELATION COEFFICIENT FO-FC      : 0.938                         
   3   CORRELATION COEFFICIENT FO-FC FREE : 0.906                         
   3                                                                      
   3  RMS DEVIATIONS FROM IDEAL VALUES        COUNT    RMS    WEIGHT      
   3   BOND LENGTHS REFINED ATOMS        (A):  8138 ; 0.019 ; 0.022       
   3   BOND LENGTHS OTHERS               (A):  NULL ;  NULL ;  NULL       
   3   BOND ANGLES REFINED ATOMS   (DEGREES): 11010 ; 1.780 ; 1.959       
   3   BOND ANGLES OTHERS          (DEGREES):  NULL ;  NULL ;  NULL       
   3   TORSION ANGLES, PERIOD 1    (DEGREES):  1004 ; 5.663 ; 5.000       
   3   TORSION ANGLES, PERIOD 2    (DEGREES):   358 ;39.482 ;25.140       
   3   TORSION ANGLES, PERIOD 3    (DEGREES):  1442 ;15.033 ;15.000       
   3   TORSION ANGLES, PERIOD 4    (DEGREES):    33 ;19.711 ;15.000       
   3   CHIRAL-CENTER RESTRAINTS       (A**3):  1199 ; 0.126 ; 0.200       
   3   GENERAL PLANES REFINED ATOMS      (A):  6053 ; 0.009 ; 0.021       
   3   GENERAL PLANES OTHERS             (A):  NULL ;  NULL ;  NULL       
   3   NON-BONDED CONTACTS REFINED ATOMS (A):  NULL ;  NULL ;  NULL       
   3   NON-BONDED CONTACTS OTHERS        (A):  NULL ;  NULL ;  NULL       
   3   NON-BONDED TORSION REFINED ATOMS  (A):  NULL ;  NULL ;  NULL       
   3   NON-BONDED TORSION OTHERS         (A):  NULL ;  NULL ;  NULL       
   3   H-BOND (X...Y) REFINED ATOMS      (A):  NULL ;  NULL ;  NULL       
   3   H-BOND (X...Y) OTHERS             (A):  NULL ;  NULL ;  NULL       
   3   POTENTIAL METAL-ION REFINED ATOMS (A):  NULL ;  NULL ;  NULL       
   3   POTENTIAL METAL-ION OTHERS        (A):  NULL ;  NULL ;  NULL       
   3   SYMMETRY VDW REFINED ATOMS        (A):  NULL ;  NULL ;  NULL       
   3   SYMMETRY VDW OTHERS               (A):  NULL ;  NULL ;  NULL       
   3   SYMMETRY H-BOND REFINED ATOMS     (A):  NULL ;  NULL ;  NULL       
   3   SYMMETRY H-BOND OTHERS            (A):  NULL ;  NULL ;  NULL       
   3   SYMMETRY METAL-ION REFINED ATOMS  (A):  NULL ;  NULL ;  NULL       
   3   SYMMETRY METAL-ION OTHERS         (A):  NULL ;  NULL ;  NULL       
   3                                                                      
   3  ISOTROPIC THERMAL FACTOR RESTRAINTS.     COUNT   RMS    WEIGHT      
   3   MAIN-CHAIN BOND REFINED ATOMS  (A**2):  4956 ; 0.990 ; 1.500       
   3   MAIN-CHAIN BOND OTHER ATOMS    (A**2):  NULL ;  NULL ;  NULL       
   3   MAIN-CHAIN ANGLE REFINED ATOMS (A**2):  8003 ; 1.738 ; 2.000       
   3   SIDE-CHAIN BOND REFINED ATOMS  (A**2):  3182 ; 3.025 ; 3.000       
   3   SIDE-CHAIN ANGLE REFINED ATOMS (A**2):  3003 ; 4.903 ; 4.500       
   3                                                                      
   3 ANISOTROPIC THERMAL FACTOR RESTRAINTS.    COUNT   RMS   WEIGHT       
   3   RIGID-BOND RESTRAINTS          (A**2):  NULL ;  NULL ;  NULL       
   3   SPHERICITY; FREE ATOMS         (A**2):  NULL ;  NULL ;  NULL       
   3   SPHERICITY; BONDED ATOMS       (A**2):  NULL ;  NULL ;  NULL       
   3                                                                      
   3  NCS RESTRAINTS STATISTICS                                           
   3   NUMBER OF DIFFERENT NCS GROUPS : NULL                              
   3                                                                      
   3  TLS DETAILS                                                         
   3   NUMBER OF TLS GROUPS  : NULL                                       
   3                                                                      
   3  BULK SOLVENT MODELLING.                                             
   3   METHOD USED : MASK                                                 
   3   PARAMETERS FOR MASK CALCULATION                                    
   3   VDW PROBE RADIUS   : 1.20                                          
   3   ION PROBE RADIUS   : 0.80                                          
   3   SHRINKAGE RADIUS   : 0.80                                          
   3                                                                      
   3  OTHER REFINEMENT REMARKS: HYDROGENS HAVE BEEN ADDED IN THE          
   3  RIDING POSITIONS, U VALUES REFINED INDIVIDUALLY                     
   4                                                                      
   4 3LCE COMPLIES WITH FORMAT V. 3.20, 01-DEC-08                         
 100                                                                      
 100 THIS ENTRY HAS BEEN PROCESSED BY RCSB ON 16-FEB-10.                  
 100 THE RCSB ID CODE IS RCSB057104.                                      
 200                                                                      
 200 EXPERIMENTAL DETAILS                                                 
 200  EXPERIMENT TYPE                : X-RAY DIFFRACTION                  
 200  DATE OF DATA COLLECTION        : 16-DEC-08                          
 200  TEMPERATURE           (KELVIN) : 100                                
 200  PH                             : 7.0                                
 200  NUMBER OF CRYSTALS USED        : 1                                  
 200                                                                      
 200  SYNCHROTRON              (Y/N) : N                                  
 200  RADIATION SOURCE               : ROTATING ANODE                     
 200  BEAMLINE                       : NULL                               
 200  X-RAY GENERATOR MODEL          : RIGAKU RU200                       
 200  MONOCHROMATIC OR LAUE    (M/L) : M                                  
 200  WAVELENGTH OR RANGE        (A) : 1.5418                             
 200  MONOCHROMATOR                  : NULL                               
 200  OPTICS                         : NULL                               
 200                                                                      
 200  DETECTOR TYPE                  : IMAGE PLATE                        
 200  DETECTOR MANUFACTURER          : MAR SCANNER 345 MM PLATE           
 200  INTENSITY-INTEGRATION SOFTWARE : MOSFLM                             
 200  DATA SCALING SOFTWARE          : SCALA                              
 200                                                                      
 200  NUMBER OF UNIQUE REFLECTIONS   : 84571                              
 200  RESOLUTION RANGE HIGH      (A) : 1.917                              
 200  RESOLUTION RANGE LOW       (A) : 102.062                            
 200  REJECTION CRITERIA  (SIGMA(I)) : NULL                               
 200                                                                      
 200 OVERALL.                                                             
 200  COMPLETENESS FOR RANGE     (%) : 97.3                               
 200  DATA REDUNDANCY                : 3.400                              
 200  R MERGE                    (I) : 0.08200                            
 200  R SYM                      (I) : 0.08200                            
 200  <I/SIGMA(I)> FOR THE DATA SET  : 13.9000                            
 200                                                                      
 200 IN THE HIGHEST RESOLUTION SHELL.                                     
 200  HIGHEST RESOLUTION SHELL, RANGE HIGH (A) : 2.00                     
 200  HIGHEST RESOLUTION SHELL, RANGE LOW  (A) : 2.12                     
 200  COMPLETENESS FOR SHELL     (%) : 99.3                               
 200  DATA REDUNDANCY IN SHELL       : 3.40                               
 200  R MERGE FOR SHELL          (I) : 0.35000                            
 200  R SYM FOR SHELL            (I) : 0.35000                            
 200  <I/SIGMA(I)> FOR SHELL         : 2.200                              
 200                                                                      
 200 DIFFRACTION PROTOCOL: SINGLE WAVELENGTH                              
 200 METHOD USED TO DETERMINE THE STRUCTURE: REFMAC RIGID BODY            
 200  REFINEMENT                                                          
 200 SOFTWARE USED: REFMAC 5.5.0066                                       
 200 STARTING MODEL: PDB ENTRY 1E4D                                       
 200                                                                      
 200 REMARK: NULL                                                         
 280                                                                      
 280 CRYSTAL                                                              
 280 SOLVENT CONTENT, VS   (%): 50.97                                     
 280 MATTHEWS COEFFICIENT, VM (ANGSTROMS**3/DA): 2.51                     
 280                                                                      
 280 CRYSTALLIZATION CONDITIONS: 1.4 M SODIUM POTASSIUM PHOSPHATE,        
 280  PH 7.0, VAPOR DIFFUSION, HANGING DROP, TEMPERATURE 294K             
 290                                                                      
 290 CRYSTALLOGRAPHIC SYMMETRY                                            
 290 SYMMETRY OPERATORS FOR SPACE GROUP: P 1 21 1                         
 290                                                                      
 290      SYMOP   SYMMETRY                                                
 290     NNNMMM   OPERATOR                                                
 290       1555   X,Y,Z                                                   
 290       2555   -X,Y+1/2,-Z                                             
 290                                                                      
 290     WHERE NNN -> OPERATOR NUMBER                                     
 290           MMM -> TRANSLATION VECTOR                                  
 290                                                                      
 290 CRYSTALLOGRAPHIC SYMMETRY TRANSFORMATIONS                            
 290 THE FOLLOWING TRANSFORMATIONS OPERATE ON THE ATOM/HETATM             
 290 RECORDS IN THIS ENTRY TO PRODUCE CRYSTALLOGRAPHICALLY                
 290 RELATED MOLECULES.                                                   
 290   SMTRY1   1  1.000000  0.000000  0.000000        0.00000            
 290   SMTRY2   1  0.000000  1.000000  0.000000        0.00000            
 290   SMTRY3   1  0.000000  0.000000  1.000000        0.00000            
 290   SMTRY1   2 -1.000000  0.000000  0.000000        0.00000            
 290   SMTRY2   2  0.000000  1.000000  0.000000       41.27200            
 290   SMTRY3   2  0.000000  0.000000 -1.000000        0.00000            
 290                                                                      
 290 REMARK: NULL                                                         
 300                                                                      
 300 BIOMOLECULE: 1, 2                                                    
 300 SEE REMARK 350 FOR THE AUTHOR PROVIDED AND/OR PROGRAM                
 300 GENERATED ASSEMBLY INFORMATION FOR THE STRUCTURE IN                  
 300 THIS ENTRY. THE REMARK MAY ALSO PROVIDE INFORMATION ON               
 300 BURIED SURFACE AREA.                                                 
 350                                                                      
 350 COORDINATES FOR A COMPLETE MULTIMER REPRESENTING THE KNOWN           
 350 BIOLOGICALLY SIGNIFICANT OLIGOMERIZATION STATE OF THE                
 350 MOLECULE CAN BE GENERATED BY APPLYING BIOMT TRANSFORMATIONS          
 350 GIVEN BELOW.  BOTH NON-CRYSTALLOGRAPHIC AND                          
 350 CRYSTALLOGRAPHIC OPERATIONS ARE GIVEN.                               
 350                                                                      
 350 BIOMOLECULE: 1                                                       
 350 AUTHOR DETERMINED BIOLOGICAL UNIT: DIMERIC                           
 350 SOFTWARE DETERMINED QUATERNARY STRUCTURE: DIMERIC                    
 350 SOFTWARE USED: PISA                                                  
 350 TOTAL BURIED SURFACE AREA: 3790 ANGSTROM**2                          
 350 SURFACE AREA OF THE COMPLEX: 19860 ANGSTROM**2                       
 350 CHANGE IN SOLVENT FREE ENERGY: -18.0 KCAL/MOL                        
 350 APPLY THE FOLLOWING TO CHAINS: A, C                                  
 350   BIOMT1   1  1.000000  0.000000  0.000000        0.00000            
 350   BIOMT2   1  0.000000  1.000000  0.000000        0.00000            
 350   BIOMT3   1  0.000000  0.000000  1.000000        0.00000            
 350                                                                      
 350 BIOMOLECULE: 2                                                       
 350 AUTHOR DETERMINED BIOLOGICAL UNIT: DIMERIC                           
 350 SOFTWARE DETERMINED QUATERNARY STRUCTURE: DIMERIC                    
 350 SOFTWARE USED: PISA                                                  
 350 TOTAL BURIED SURFACE AREA: 4250 ANGSTROM**2                          
 350 SURFACE AREA OF THE COMPLEX: 20150 ANGSTROM**2                       
 350 CHANGE IN SOLVENT FREE ENERGY: -16.0 KCAL/MOL                        
 350 APPLY THE FOLLOWING TO CHAINS: B, D                                  
 350   BIOMT1   1  1.000000  0.000000  0.000000        0.00000            
 350   BIOMT2   1  0.000000  1.000000  0.000000        0.00000            
 350   BIOMT3   1  0.000000  0.000000  1.000000        0.00000            
 465                                                                      
 465 MISSING RESIDUES                                                     
 465 THE FOLLOWING RESIDUES WERE NOT LOCATED IN THE                       
 465 EXPERIMENT. (M=MODEL NUMBER; RES=RESIDUE NAME; C=CHAIN               
 465 IDENTIFIER; SSSEQ=SEQUENCE NUMBER; I=INSERTION CODE.)                
 465                                                                      
 465   M RES C SSSEQI                                                     
 465     GLY A   266                                                      
 465     GLY B   266                                                      
 500                                                                      
 500 GEOMETRY AND STEREOCHEMISTRY                                         
 500 SUBTOPIC: CLOSE CONTACTS IN SAME ASYMMETRIC UNIT                     
 500                                                                      
 500 THE FOLLOWING ATOMS ARE IN CLOSE CONTACT.                            
 500                                                                      
 500  ATM1  RES C  SSEQI   ATM2  RES C  SSEQI           DISTANCE          
 500   O    HOH A   280     O    HOH A   493              1.07            
 500   O    HOH A   290     O    HOH A   344              1.40            
 500   O    HOH A   290     O    HOH A   578              1.59            
 500   O    HOH D   354     O    HOH D   576              1.63            
 500   OE1  GLU A   227     O    HOH A   563              1.79            
 500   O    HOH B   339     O    HOH B   438              1.83            
 500   O    HOH B   342     O    HOH B   438              1.83            
 500   CD   LYS B   182     OE2  GLU D   183              1.94            
 500   O    SER D   147     O    HOH D   283              2.00            
 500   CB   SER D    21     O    HOH D   496              2.01            
 500   O    SER D   147     O    HOH D   283              2.02            
 500   O3   GOL D   268     O    HOH D   620              2.03            
 500   O    HOH C   341     O    HOH C   838              2.05            
 500   OE1  GLN D   158     O1   GOL D   268              2.06            
 500   N    SER B    21     O    HOH B   376              2.09            
 500   CA   SER B    21     O    HOH B   376              2.10            
 500   NH1  ARG A   109     O3   GOL C   267              2.10            
 500   CG   MET D    99     O    HOH D   567              2.10            
 500   O    HOH C   499     O    HOH C   637              2.12            
 500   OE2  GLU A   129     O    HOH A   581              2.12            
 500   O    HOH D   754     O    HOH D   821              2.12            
 500   CE   LYS B   182     OE2  GLU D   183              2.14            
 500   O    HOH D   355     O    HOH D   639              2.14            
 500   O    HOH D   484     O    HOH D   548              2.14            
 500   O    HOH A   493     O    HOH A   673              2.17            
 500   NZ   LYS C   182     O    HOH C   884              2.18            
 500                                                                      
 500 REMARK: NULL                                                         
 500                                                                      
 500 GEOMETRY AND STEREOCHEMISTRY                                         
 500 SUBTOPIC: CLOSE CONTACTS                                             
 500                                                                      
 500 THE FOLLOWING ATOMS THAT ARE RELATED BY CRYSTALLOGRAPHIC             
 500 SYMMETRY ARE IN CLOSE CONTACT.  AN ATOM LOCATED WITHIN 0.15          
 500 ANGSTROMS OF A SYMMETRY RELATED ATOM IS ASSUMED TO BE ON A           
 500 SPECIAL POSITION AND IS, THEREFORE, LISTED IN REMARK 375             
 500 INSTEAD OF REMARK 500.  ATOMS WITH NON-BLANK ALTERNATE               
 500 LOCATION INDICATORS ARE NOT INCLUDED IN THE CALCULATIONS.            
 500                                                                      
 500 DISTANCE CUTOFF:                                                     
 500 2.2 ANGSTROMS FOR CONTACTS NOT INVOLVING HYDROGEN ATOMS              
 500 1.6 ANGSTROMS FOR CONTACTS INVOLVING HYDROGEN ATOMS                  
 500                                                                      
 500  ATM1  RES C  SSEQI   ATM2  RES C  SSEQI  SSYMOP   DISTANCE          
 500   O    HOH B   284     O    HOH D   620     2555     1.74            
 500   O3   GOL D   268     O    HOH B   284     2545     1.82            
 500   O    HOH B   859     O    HOH C   849     1554     1.96            
 500   C3   GOL D   268     O    HOH B   284     2545     2.08            
 500                                                                      
 500 REMARK: NULL                                                         
 500                                                                      
 500 GEOMETRY AND STEREOCHEMISTRY                                         
 500 SUBTOPIC: COVALENT BOND ANGLES                                       
 500                                                                      
 500 THE STEREOCHEMICAL PARAMETERS OF THE FOLLOWING RESIDUES              
 500 HAVE VALUES WHICH DEVIATE FROM EXPECTED VALUES BY MORE               
 500 THAN 6*RMSD (M=MODEL NUMBER; RES=RESIDUE NAME; C=CHAIN               
 500 IDENTIFIER; SSEQ=SEQUENCE NUMBER; I=INSERTION CODE).                 
 500                                                                      
 500 STANDARD TABLE:                                                      
 500 FORMAT: (10X,I3,1X,A3,1X,A1,I4,A1,3(1X,A4,2X),12X,F5.1)              
 500                                                                      
 500 EXPECTED VALUES PROTEIN: ENGH AND HUBER, 1999                        
 500 EXPECTED VALUES NUCLEIC ACID: CLOWNEY ET AL 1996                     
 500                                                                      
 500  M RES CSSEQI ATM1   ATM2   ATM3                                     
 500    ARG A 131   NE  -  CZ  -  NH1 ANGL. DEV. =  -3.0 DEGREES          
 500    ARG B 109   NE  -  CZ  -  NH1 ANGL. DEV. =  -3.9 DEGREES          
 500    ARG C 250   NE  -  CZ  -  NH1 ANGL. DEV. =   6.5 DEGREES          
 500    ARG C 250   NE  -  CZ  -  NH2 ANGL. DEV. =  -5.4 DEGREES          
 500    LEU D  64   CA  -  CB  -  CG  ANGL. DEV. =  16.3 DEGREES          
 500                                                                      
 500 REMARK: NULL                                                         
 500                                                                      
 500 GEOMETRY AND STEREOCHEMISTRY                                         
 500 SUBTOPIC: TORSION ANGLES                                             
 500                                                                      
 500 TORSION ANGLES OUTSIDE THE EXPECTED RAMACHANDRAN REGIONS:            
 500 (M=MODEL NUMBER; RES=RESIDUE NAME; C=CHAIN IDENTIFIER;               
 500 SSEQ=SEQUENCE NUMBER; I=INSERTION CODE).                             
 500                                                                      
 500 STANDARD TABLE:                                                      
 500 FORMAT:(10X,I3,1X,A3,1X,A1,I4,A1,4X,F7.2,3X,F7.2)                    
 500                                                                      
 500 EXPECTED VALUES: GJ KLEYWEGT AND TA JONES (1996). PHI/PSI-           
 500 CHOLOGY: RAMACHANDRAN REVISITED. STRUCTURE 4, 1395 - 1400            
 500                                                                      
 500  M RES CSSEQI        PSI       PHI                                   
 500    SER A  46      -43.36     67.59                                   
 500    ALA A  66     -133.95     42.75                                   
 500    GLU A 156       11.30   -148.39                                   
 500    TYR A 200      118.28   -165.97                                   
 500    GLU A 229     -126.00     52.82                                   
 500    SER B  46      -53.19     76.47                                   
 500    SER B  48        8.98    -69.55                                   
 500    ALA B  66     -131.68     42.30                                   
 500    GLN B 144       18.14     56.53                                   
 500    GLU B 229     -126.72     44.33                                   
 500    SER C  46      -53.14     72.53                                   
 500    ALA C  66     -143.55     48.00                                   
 500    GLU C 156       16.79   -151.05                                   
 500    GLU C 229     -122.07     52.01                                   
 500    SER D  46      -49.62     74.74                                   
 500    ALA D  66     -142.96     46.43                                   
 500    GLU D 156       16.64   -153.66                                   
 500    GLU D 229     -122.38     51.26                                   
 500                                                                      
 500 REMARK: NULL                                                         
 500                                                                      
 500 GEOMETRY AND STEREOCHEMISTRY                                         
 500 SUBTOPIC: MAIN CHAIN PLANARITY                                       
 500                                                                      
 500 THE FOLLOWING RESIDUES HAVE A PSEUDO PLANARITY                       
 500 TORSION ANGLE, C(I) - CA(I) - N(I+1) - O(I), GREATER                 
 500 10.0 DEGREES. (M=MODEL NUMBER; RES=RESIDUE NAME;                     
 500 C=CHAIN IDENTIFIER; SSEQ=SEQUENCE NUMBER;                            
 500 I=INSERTION CODE).                                                   
 500                                                                      
 500  M RES CSSEQI        ANGLE                                           
 500    SER A  67        -12.47                                           
 500                                                                      
 500 REMARK: NULL                                                         
 525                                                                      
 525 SOLVENT                                                              
 525                                                                      
 525 THE SOLVENT MOLECULES HAVE CHAIN IDENTIFIERS THAT                    
 525 INDICATE THE POLYMER CHAIN WITH WHICH THEY ARE MOST                  
 525 CLOSELY ASSOCIATED. THE REMARK LISTS ALL THE SOLVENT                 
 525 MOLECULES WHICH ARE MORE THAN 5A AWAY FROM THE                       
 525 NEAREST POLYMER CHAIN (M = MODEL NUMBER;                             
 525 RES=RESIDUE NAME; C=CHAIN IDENTIFIER; SSEQ=SEQUENCE                  
 525 NUMBER; I=INSERTION CODE):                                           
 525                                                                      
 525  M RES CSSEQI                                                        
 525    HOH C 370        DISTANCE =  5.33 ANGSTROMS                       
 800                                                                      
 800 SITE                                                                 
 800 SITE_IDENTIFIER: AC1                                                 
 800 EVIDENCE_CODE: SOFTWARE                                              
 800 SITE_DESCRIPTION: BINDING SITE FOR RESIDUE GOL A 1                   
 800                                                                      
 800 SITE_IDENTIFIER: AC2                                                 
 800 EVIDENCE_CODE: SOFTWARE                                              
 800 SITE_DESCRIPTION: BINDING SITE FOR RESIDUE GOL A 267                 
 800                                                                      
 800 SITE_IDENTIFIER: AC3                                                 
 800 EVIDENCE_CODE: SOFTWARE                                              
 800 SITE_DESCRIPTION: BINDING SITE FOR RESIDUE GOL A 268                 
 800                                                                      
 800 SITE_IDENTIFIER: AC4                                                 
 800 EVIDENCE_CODE: SOFTWARE                                              
 800 SITE_DESCRIPTION: BINDING SITE FOR RESIDUE LCE A 269                 
 800                                                                      
 800 SITE_IDENTIFIER: AC5                                                 
 800 EVIDENCE_CODE: SOFTWARE                                              
 800 SITE_DESCRIPTION: BINDING SITE FOR RESIDUE GOL B 1                   
 800                                                                      
 800 SITE_IDENTIFIER: AC6                                                 
 800 EVIDENCE_CODE: SOFTWARE                                              
 800 SITE_DESCRIPTION: BINDING SITE FOR RESIDUE GOL B 267                 
 800                                                                      
 800 SITE_IDENTIFIER: AC7                                                 
 800 EVIDENCE_CODE: SOFTWARE                                              
 800 SITE_DESCRIPTION: BINDING SITE FOR RESIDUE GOL B 268                 
 800                                                                      
 800 SITE_IDENTIFIER: AC8                                                 
 800 EVIDENCE_CODE: SOFTWARE                                              
 800 SITE_DESCRIPTION: BINDING SITE FOR RESIDUE GOL B 269                 
 800                                                                      
 800 SITE_IDENTIFIER: AC9                                                 
 800 EVIDENCE_CODE: SOFTWARE                                              
 800 SITE_DESCRIPTION: BINDING SITE FOR RESIDUE LCE B 270                 
 800                                                                      
 800 SITE_IDENTIFIER: BC1                                                 
 800 EVIDENCE_CODE: SOFTWARE                                              
 800 SITE_DESCRIPTION: BINDING SITE FOR RESIDUE PO4 C 1                   
 800                                                                      
 800 SITE_IDENTIFIER: BC2                                                 
 800 EVIDENCE_CODE: SOFTWARE                                              
 800 SITE_DESCRIPTION: BINDING SITE FOR RESIDUE GOL C 267                 
 800                                                                      
 800 SITE_IDENTIFIER: BC3                                                 
 800 EVIDENCE_CODE: SOFTWARE                                              
 800 SITE_DESCRIPTION: BINDING SITE FOR RESIDUE PO4 D 2                   
 800                                                                      
 800 SITE_IDENTIFIER: BC4                                                 
 800 EVIDENCE_CODE: SOFTWARE                                              
 800 SITE_DESCRIPTION: BINDING SITE FOR RESIDUE GOL D 1                   
 800                                                                      
 800 SITE_IDENTIFIER: BC5                                                 
 800 EVIDENCE_CODE: SOFTWARE                                              
 800 SITE_DESCRIPTION: BINDING SITE FOR RESIDUE GOL D 267                 
 800                                                                      
 800 SITE_IDENTIFIER: BC6                                                 
 800 EVIDENCE_CODE: SOFTWARE                                              
 800 SITE_DESCRIPTION: BINDING SITE FOR RESIDUE GOL D 268                 

>  <DBREF>
 3LCE A   21   266  UNP    P14489   BLO10_PSEAE     21    266             
 3LCE B   21   266  UNP    P14489   BLO10_PSEAE     21    266             
 3LCE C   21   266  UNP    P14489   BLO10_PSEAE     21    266             
 3LCE D   21   266  UNP    P14489   BLO10_PSEAE     21    266             

>  <SEQRES>
   1 A  246  SER ILE THR GLU ASN THR SER TRP ASN LYS GLU PHE SER          
   2 A  246  ALA GLU ALA VAL ASN GLY VAL PHE VAL LEU CYS LYS SER          
   3 A  246  SER SER LYS SER CYS ALA THR ASN ASP LEU ALA ARG ALA          
   4 A  246  SER LYS GLU TYR LEU PRO ALA SER THR PHE KCX ILE PRO          
   5 A  246  ASN ALA ILE ILE GLY LEU GLU THR GLY VAL ILE LYS ASN          
   6 A  246  GLU HIS GLN VAL PHE LYS TRP ASP GLY LYS PRO ARG ALA          
   7 A  246  MET LYS GLN TRP GLU ARG ASP LEU THR LEU ARG GLY ALA          
   8 A  246  ILE GLN VAL SER ALA VAL PRO VAL PHE GLN GLN ILE ALA          
   9 A  246  ARG GLU VAL GLY GLU VAL ARG MET GLN LYS TYR LEU LYS          
  10 A  246  LYS PHE SER TYR GLY ASN GLN ASN ILE SER GLY GLY ILE          
  11 A  246  ASP LYS PHE TRP LEU GLU GLY GLN LEU ARG ILE SER ALA          
  12 A  246  VAL ASN GLN VAL GLU PHE LEU GLU SER LEU TYR LEU ASN          
  13 A  246  LYS LEU SER ALA SER LYS GLU ASN GLN LEU ILE VAL LYS          
  14 A  246  GLU ALA LEU VAL THR GLU ALA ALA PRO GLU TYR LEU VAL          
  15 A  246  HIS SER LYS THR GLY PHE SER GLY VAL GLY THR GLU SER          
  16 A  246  ASN PRO GLY VAL ALA TRP TRP VAL GLY TRP VAL GLU LYS          
  17 A  246  GLU THR GLU VAL TYR PHE PHE ALA PHE ASN MET ASP ILE          
  18 A  246  ASP ASN GLU SER LYS LEU PRO LEU ARG LYS SER ILE PRO          
  19 A  246  THR LYS ILE MET GLU SER GLU GLY ILE ILE GLY GLY              
   1 B  246  SER ILE THR GLU ASN THR SER TRP ASN LYS GLU PHE SER          
   2 B  246  ALA GLU ALA VAL ASN GLY VAL PHE VAL LEU CYS LYS SER          
   3 B  246  SER SER LYS SER CYS ALA THR ASN ASP LEU ALA ARG ALA          
   4 B  246  SER LYS GLU TYR LEU PRO ALA SER THR PHE KCX ILE PRO          
   5 B  246  ASN ALA ILE ILE GLY LEU GLU THR GLY VAL ILE LYS ASN          
   6 B  246  GLU HIS GLN VAL PHE LYS TRP ASP GLY LYS PRO ARG ALA          
   7 B  246  MET LYS GLN TRP GLU ARG ASP LEU THR LEU ARG GLY ALA          
   8 B  246  ILE GLN VAL SER ALA VAL PRO VAL PHE GLN GLN ILE ALA          
   9 B  246  ARG GLU VAL GLY GLU VAL ARG MET GLN LYS TYR LEU LYS          
  10 B  246  LYS PHE SER TYR GLY ASN GLN ASN ILE SER GLY GLY ILE          
  11 B  246  ASP LYS PHE TRP LEU GLU GLY GLN LEU ARG ILE SER ALA          
  12 B  246  VAL ASN GLN VAL GLU PHE LEU GLU SER LEU TYR LEU ASN          
  13 B  246  LYS LEU SER ALA SER LYS GLU ASN GLN LEU ILE VAL LYS          
  14 B  246  GLU ALA LEU VAL THR GLU ALA ALA PRO GLU TYR LEU VAL          
  15 B  246  HIS SER LYS THR GLY PHE SER GLY VAL GLY THR GLU SER          
  16 B  246  ASN PRO GLY VAL ALA TRP TRP VAL GLY TRP VAL GLU LYS          
  17 B  246  GLU THR GLU VAL TYR PHE PHE ALA PHE ASN MET ASP ILE          
  18 B  246  ASP ASN GLU SER LYS LEU PRO LEU ARG LYS SER ILE PRO          
  19 B  246  THR LYS ILE MET GLU SER GLU GLY ILE ILE GLY GLY              
   1 C  246  SER ILE THR GLU ASN THR SER TRP ASN LYS GLU PHE SER          
   2 C  246  ALA GLU ALA VAL ASN GLY VAL PHE VAL LEU CYS LYS SER          
   3 C  246  SER SER LYS SER CYS ALA THR ASN ASP LEU ALA ARG ALA          
   4 C  246  SER LYS GLU TYR LEU PRO ALA SER THR PHE KCX ILE PRO          
   5 C  246  ASN ALA ILE ILE GLY LEU GLU THR GLY VAL ILE LYS ASN          
   6 C  246  GLU HIS GLN VAL PHE LYS TRP ASP GLY LYS PRO ARG ALA          
   7 C  246  MET LYS GLN TRP GLU ARG ASP LEU THR LEU ARG GLY ALA          
   8 C  246  ILE GLN VAL SER ALA VAL PRO VAL PHE GLN GLN ILE ALA          
   9 C  246  ARG GLU VAL GLY GLU VAL ARG MET GLN LYS TYR LEU LYS          
  10 C  246  LYS PHE SER TYR GLY ASN GLN ASN ILE SER GLY GLY ILE          
  11 C  246  ASP LYS PHE TRP LEU GLU GLY GLN LEU ARG ILE SER ALA          
  12 C  246  VAL ASN GLN VAL GLU PHE LEU GLU SER LEU TYR LEU ASN          
  13 C  246  LYS LEU SER ALA SER LYS GLU ASN GLN LEU ILE VAL LYS          
  14 C  246  GLU ALA LEU VAL THR GLU ALA ALA PRO GLU TYR LEU VAL          
  15 C  246  HIS SER LYS THR GLY PHE SER GLY VAL GLY THR GLU SER          
  16 C  246  ASN PRO GLY VAL ALA TRP TRP VAL GLY TRP VAL GLU LYS          
  17 C  246  GLU THR GLU VAL TYR PHE PHE ALA PHE ASN MET ASP ILE          
  18 C  246  ASP ASN GLU SER LYS LEU PRO LEU ARG LYS SER ILE PRO          
  19 C  246  THR LYS ILE MET GLU SER GLU GLY ILE ILE GLY GLY              
   1 D  246  SER ILE THR GLU ASN THR SER TRP ASN LYS GLU PHE SER          
   2 D  246  ALA GLU ALA VAL ASN GLY VAL PHE VAL LEU CYS LYS SER          
   3 D  246  SER SER LYS SER CYS ALA THR ASN ASP LEU ALA ARG ALA          
   4 D  246  SER LYS GLU TYR LEU PRO ALA SER THR PHE KCX ILE PRO          
   5 D  246  ASN ALA ILE ILE GLY LEU GLU THR GLY VAL ILE LYS ASN          
   6 D  246  GLU HIS GLN VAL PHE LYS TRP ASP GLY LYS PRO ARG ALA          
   7 D  246  MET LYS GLN TRP GLU ARG ASP LEU THR LEU ARG GLY ALA          
   8 D  246  ILE GLN VAL SER ALA VAL PRO VAL PHE GLN GLN ILE ALA          
   9 D  246  ARG GLU VAL GLY GLU VAL ARG MET GLN LYS TYR LEU LYS          
  10 D  246  LYS PHE SER TYR GLY ASN GLN ASN ILE SER GLY GLY ILE          
  11 D  246  ASP LYS PHE TRP LEU GLU GLY GLN LEU ARG ILE SER ALA          
  12 D  246  VAL ASN GLN VAL GLU PHE LEU GLU SER LEU TYR LEU ASN          
  13 D  246  LYS LEU SER ALA SER LYS GLU ASN GLN LEU ILE VAL LYS          
  14 D  246  GLU ALA LEU VAL THR GLU ALA ALA PRO GLU TYR LEU VAL          
  15 D  246  HIS SER LYS THR GLY PHE SER GLY VAL GLY THR GLU SER          
  16 D  246  ASN PRO GLY VAL ALA TRP TRP VAL GLY TRP VAL GLU LYS          
  17 D  246  GLU THR GLU VAL TYR PHE PHE ALA PHE ASN MET ASP ILE          
  18 D  246  ASP ASN GLU SER LYS LEU PRO LEU ARG LYS SER ILE PRO          
  19 D  246  THR LYS ILE MET GLU SER GLU GLY ILE ILE GLY GLY              

>  <MODRES>
 3LCE KCX A   70  LYS  LYSINE NZ-CARBOXYLIC ACID                          
 3LCE KCX B   70  LYS  LYSINE NZ-CARBOXYLIC ACID                          
 3LCE KCX C   70  LYS  LYSINE NZ-CARBOXYLIC ACID                          
 3LCE KCX D   70  LYS  LYSINE NZ-CARBOXYLIC ACID                          

>  <HET>
 KCX  A  70      12                                                       
 KCX  B  70      12                                                       
 KCX  C  70      12                                                       
 KCX  D  70      12                                                       
 GOL  A   1       6                                                       
 GOL  A 267       6                                                       
 GOL  A 268       6                                                       
 LCE  A 269      15                                                       
 GOL  B   1       6                                                       
 GOL  B 267       6                                                       
 GOL  B 268       6                                                       
 GOL  B 269       6                                                       
 LCE  B 270      15                                                       
 PO4  C   1       5                                                       
 GOL  C 267       6                                                       
 PO4  D   2       5                                                       
 GOL  D   1       6                                                       
 GOL  D 267       6                                                       
 GOL  D 268       6                                                       

>  <HETNAM>
     KCX LYSINE NZ-CARBOXYLIC ACID                                        
     GOL GLYCEROL                                                         
     LCE (1S,3S,4S,5S)-7,7-DICHLORO-3-METHOXY-2-                          
   2 LCE  THIABICYCLO[3.2.0]HEPTAN-6-ONE-4-CARBOXYLIC ACID                
     PO4 PHOSPHATE ION                                                    

>  <HETSYN>
     LCE (1S,3S,4S,5S)-7,7-DICHLORO-3-METHOXY-6-OXO-2-                    
   2 LCE  THIABICYCLO[3.2.0]HEPTANE-4-CARBOXYLIC ACID                     

>  <FORMUL>
   1  KCX    4(C7 H14 N2 O4)                                              
   5  GOL    11(C3 H8 O3)                                                 
   8  LCE    2(C8 H8 CL2 O4 S)                                            
  14  PO4    2(O4 P 3-)                                                   
  20  HOH   *917(H2 O)                                                    

>  <HELIX>
   1   1 THR A   26  TRP A   28  5                                   3    
   2   2 ASN A   29  GLU A   35  1                                   7    
   3   3 ALA A   57  LYS A   61  5                                   5    
   4   4 PRO A   65  THR A   68  5                                   4    
   5   5 PHE A   69  THR A   80  1                                  12    
   6   6 MET A   99  GLU A  103  5                                   5    
   7   7 THR A  107  VAL A  114  1                                   8    
   8   8 ALA A  116  PHE A  139  1                                  24    
   9   9 SER A  162  LEU A  175  1                                  14    
  10  10 SER A  181  LEU A  192  1                                  12    
  11  11 ASN A  243  LEU A  247  5                                   5    
  12  12 PRO A  248  GLU A  261  1                                  14    
  13  13 TRP B   28  ALA B   34  1                                   7    
  14  14 ASP B   55  SER B   60  1                                   6    
  15  15 PRO B   65  THR B   68  5                                   4    
  16  16 PHE B   69  THR B   80  1                                  12    
  17  17 MET B   99  GLU B  103  5                                   5    
  18  18 LEU B  108  VAL B  114  1                                   7    
  19  19 ALA B  116  GLY B  128  1                                  13    
  20  20 GLY B  128  PHE B  139  1                                  12    
  21  21 LYS B  152  GLY B  157  1                                   6    
  22  22 SER B  162  LEU B  175  1                                  14    
  23  23 SER B  181  LEU B  192  1                                  12    
  24  24 ASN B  243  LEU B  247  5                                   5    
  25  25 PRO B  248  GLU B  261  1                                  14    
  26  26 THR C   26  TRP C   28  5                                   3    
  27  27 ASN C   29  ALA C   34  1                                   6    
  28  28 ASP C   55  LYS C   61  1                                   7    
  29  29 PRO C   65  THR C   68  5                                   4    
  30  30 PHE C   69  THR C   80  1                                  12    
  31  31 MET C   99  GLU C  103  5                                   5    
  32  32 LEU C  108  VAL C  114  1                                   7    
  33  33 ALA C  116  GLY C  128  1                                  13    
  34  34 GLY C  128  PHE C  139  1                                  12    
  35  35 LYS C  152  GLY C  157  1                                   6    
  36  36 ALA C  163  LEU C  175  1                                  13    
  37  37 SER C  181  LEU C  192  1                                  12    
  38  38 ASN C  243  LEU C  247  5                                   5    
  39  39 PRO C  248  GLU C  261  1                                  14    
  40  40 THR D   26  TRP D   28  5                                   3    
  41  41 ASN D   29  ALA D   36  1                                   8    
  42  42 ASP D   55  SER D   60  1                                   6    
  43  43 PRO D   65  THR D   68  5                                   4    
  44  44 PHE D   69  THR D   80  1                                  12    
  45  45 MET D   99  GLU D  103  5                                   5    
  46  46 LEU D  108  VAL D  114  1                                   7    
  47  47 ALA D  116  PHE D  139  1                                  24    
  48  48 LYS D  152  GLY D  157  1                                   6    
  49  49 ALA D  163  LEU D  175  1                                  13    
  50  50 SER D  181  LEU D  192  1                                  12    
  51  51 ASN D  243  LEU D  247  5                                   5    
  52  52 PRO D  248  GLU D  261  1                                  14    

>  <SHEET>
   1   A 7 ILE A  22  GLU A  24  0                                        
   2   A 7 CYS A  51  THR A  53  1  O  THR A  53   N  THR A  23           
   3   A 7 GLY A  39  LYS A  45 -1  N  LEU A  43   O  ALA A  52           
   4   A 7 GLU A 231  ILE A 241 -1  O  PHE A 234   N  CYS A  44           
   5   A 7 GLY A 218  LYS A 228 -1  N  LYS A 228   O  GLU A 231           
   6   A 7 TYR A 200  PHE A 208 -1  N  LEU A 201   O  GLU A 227           
   7   A 7 VAL A 193  ALA A 197 -1  N  GLU A 195   O  VAL A 202           
   1   B 7 ILE B  22  GLU B  24  0                                        
   2   B 7 CYS B  51  THR B  53  1  O  CYS B  51   N  THR B  23           
   3   B 7 GLY B  39  LYS B  45 -1  N  LEU B  43   O  ALA B  52           
   4   B 7 GLU B 231  ILE B 241 -1  O  ALA B 236   N  VAL B  42           
   5   B 7 GLY B 218  LYS B 228 -1  N  LYS B 228   O  GLU B 231           
   6   B 7 TYR B 200  PHE B 208 -1  N  LEU B 201   O  GLU B 227           
   7   B 7 VAL B 193  ALA B 197 -1  N  GLU B 195   O  VAL B 202           
   1   C 2 VAL B  89  PHE B  90  0                                        
   2   C 2 LEU B 106  THR B 107 -1  O  LEU B 106   N  PHE B  90           
   1   D 7 THR C  23  GLU C  24  0                                        
   2   D 7 CYS C  51  THR C  53  1  O  CYS C  51   N  THR C  23           
   3   D 7 GLY C  39  LYS C  45 -1  N  LEU C  43   O  ALA C  52           
   4   D 7 GLU C 231  ILE C 241 -1  O  ASN C 238   N  VAL C  40           
   5   D 7 GLY C 218  LYS C 228 -1  N  GLY C 218   O  ILE C 241           
   6   D 7 TYR C 200  PHE C 208 -1  N  LEU C 201   O  GLU C 227           
   7   D 7 VAL C 193  ALA C 197 -1  N  THR C 194   O  VAL C 202           
   1   E 2 GLU C  62  TYR C  63  0                                        
   2   E 2 ILE C 161  SER C 162 -1  O  ILE C 161   N  TYR C  63           
   1   F 2 VAL C  89  PHE C  90  0                                        
   2   F 2 LEU C 106  THR C 107 -1  O  LEU C 106   N  PHE C  90           
   1   G 7 THR D  23  GLU D  24  0                                        
   2   G 7 CYS D  51  THR D  53  1  O  CYS D  51   N  THR D  23           
   3   G 7 GLY D  39  LYS D  45 -1  N  LEU D  43   O  ALA D  52           
   4   G 7 GLU D 231  ILE D 241 -1  O  ALA D 236   N  VAL D  42           
   5   G 7 GLY D 218  LYS D 228 -1  N  LYS D 228   O  GLU D 231           
   6   G 7 TYR D 200  PHE D 208 -1  N  GLY D 207   O  TRP D 221           
   7   G 7 VAL D 193  ALA D 197 -1  N  THR D 194   O  VAL D 202           
   1   H 2 GLU D  62  TYR D  63  0                                        
   2   H 2 ILE D 161  SER D 162 -1  O  ILE D 161   N  TYR D  63           
   1   I 2 VAL D  89  PHE D  90  0                                        
   2   I 2 LEU D 106  THR D 107 -1  O  LEU D 106   N  PHE D  90           

>  <SSBOND>
   1 CYS A   44    CYS A   51                          1555   1555  2.07  
   2 CYS B   44    CYS B   51                          1555   1555  2.10  
   3 CYS C   44    CYS C   51                          1555   1555  2.09  
   4 CYS D   44    CYS D   51                          1555   1555  2.09  

>  <LINK>
       C   KCX A  70                 N   ILE A  71     1555   1555  1.35  
       C   KCX B  70                 N   ILE B  71     1555   1555  1.33  
       C   KCX C  70                 N   ILE C  71     1555   1555  1.33  
       C   KCX D  70                 N   ILE D  71     1555   1555  1.34  
       OG BSER A  67                 CAU LCE A 269     1555   1555  1.50  
       OG BSER B  67                 CAU LCE B 270     1555   1555  1.49  

>  <CISPEP>
   1 ILE A  264    GLY A  265          0       -16.77                     

>  <SITE>
   1 AC1  5 THR A  80  ARG A 131  LYS A 134  TYR A 135                    
   2 AC1  5 HOH A 854                                                     
   1 AC2  4 THR A 206  ARG A 250  LYS A 251  LCE A 269                    
   1 AC3  8 ALA A 197  PRO A 198  GLU A 199  TYR A 200                    
   2 AC3  8 GLU A 229  HOH A 284  THR C 107  ARG C 109                    
   1 AC4 12 ALA A  66  SER A  67  KCX A  70  SER A 115                    
   2 AC4 12 VAL A 117  LEU A 155  THR A 206  GLY A 207                    
   3 AC4 12 PHE A 208  ARG A 250  GOL A 267  HOH A 334                    
   1 AC5  2 ARG B 160  HOH B 638                                          
   1 AC6  3 ARG B 131  LYS B 134  TYR B 135                               
   1 AC7  8 ALA B 197  PRO B 198  GLU B 199  TYR B 200                    
   2 AC7  8 GLU B 229  HOH B 407  THR D 107  ARG D 109                    
   1 AC8  3 SER B 181  LYS B 182  HOH B 609                               
   1 AC9  9 ALA B  66  SER B  67  KCX B  70  SER B 115                    
   2 AC9  9 VAL B 117  THR B 206  GLY B 207  PHE B 208                    
   3 AC9  9 ARG B 250                                                     
   1 BC1 11 LYS B  95  SER C  67  SER C 115  LYS C 205                    
   2 BC1 11 THR C 206  GLY C 207  PHE C 208  ARG C 250                    
   3 BC1 11 HOH C 280  HOH C 291  HOH C 294                               
   1 BC2 10 THR A 107  ARG A 109  HOH C   7  ALA C 197                    
   2 BC2 10 PRO C 198  GLU C 199  TYR C 200  GLU C 227                    
   3 BC2 10 GLU C 229  HOH C 336                                          
   1 BC3 11 LYS A  95  SER D  67  SER D 115  LYS D 205                    
   2 BC3 11 THR D 206  GLY D 207  PHE D 208  ARG D 250                    
   3 BC3 11 HOH D 286  HOH D 758  HOH D 834                               
   1 BC4  1 HOH D 844                                                     
   1 BC5 10 HOH B  13  THR B 107  ARG B 109  ALA D 197                    
   2 BC5 10 PRO D 198  GLU D 199  TYR D 200  GLU D 227                    
   3 BC5 10 GLU D 229  HOH D 305                                          
   1 BC6  4 ASN D 145  SER D 147  GLN D 158  HOH D 620                    

>  <ORIGX1>
      1.000000  0.000000  0.000000        0.00000                         

>  <ORIGX2>
      0.000000  1.000000  0.000000        0.00000                         

>  <ORIGX3>
      0.000000  0.000000  1.000000        0.00000                         

>  <SCALE1>
      0.015221  0.000000  0.001234        0.00000                         

>  <SCALE2>
      0.000000  0.012115  0.000000        0.00000                         

>  <SCALE3>
      0.000000  0.000000  0.009801        0.00000                         

>  <MASTER>
      450    0   19   52   38    0   30    6 8885    4  168   76          

$$$$
