start_structures/Ligand_Substrate/Ligand_Complex_Stripped/LD0_7U49.pdb
 OpenBabel08222315203D

 33 35  0  0  1  0  0  0  0  0999 V2000
  -47.2290   15.6730   37.1140 N   0  0  0  0  0  0  0  0  0  0  0  0
  -47.1570   14.2220   37.2360 C   0  0  2  0  0  0  0  0  0  0  0  0
  -46.0290   13.5410   36.4380 C   0  0  0  0  0  0  0  0  0  0  0  0
  -45.8050   12.3370   36.6500 O   0  0  0  0  0  0  0  0  0  0  0  0
  -48.4960   13.6170   36.8300 C   0  0  1  0  0  0  0  0  0  0  0  0
  -49.4670   13.8890   37.8170 O   0  0  0  0  0  0  0  0  0  0  0  0
  -50.2580   14.3470   36.7870 C   0  0  2  0  0  0  0  0  0  0  0  0
  -51.8050   14.5630   34.7580 C   0  0  2  0  0  0  0  0  0  0  0  0
  -53.3170   12.3160   33.1400 C   0  0  2  0  0  0  0  0  0  0  0  0
  -52.0330   12.0740   33.8210 C   0  0  0  0  0  0  0  0  0  0  0  0
  -53.3310   18.2190   40.3080 C   0  0  0  0  0  0  0  0  0  0  0  0
  -54.2730   15.6190   38.3900 C   0  0  0  0  0  0  0  0  0  0  0  0
  -55.4680   15.2700   37.4680 C   0  0  0  0  0  0  0  0  0  0  0  0
  -56.6700   16.0170   37.4880 C   0  0  0  0  0  0  0  0  0  0  0  0
  -56.6180   14.0890   35.8280 C   0  0  0  0  0  0  0  0  0  0  0  0
  -52.9020   14.9990   38.1170 C   0  0  0  0  0  0  0  0  0  0  0  0
  -51.6010   13.9620   36.1360 C   0  0  2  0  0  0  0  0  0  0  0  0
  -53.5410   13.9580   32.9930 C   0  0  1  0  0  0  0  0  0  0  0  0
  -54.4500   11.7080   33.9470 C   0  0  0  0  0  0  0  0  0  0  0  0
  -54.9510   14.2380   32.4310 C   0  0  0  0  0  0  0  0  0  0  0  0
  -54.4260   16.4460   39.3200 N   0  0  0  0  0  0  0  0  0  0  0  0
  -55.4840   14.2400   36.5500 N   0  0  0  0  0  0  0  0  0  0  0  0
  -56.8950   13.0850   34.8090 N   0  0  0  0  0  0  0  0  0  0  0  0
  -52.7520   14.5520   36.7630 N   0  0  0  0  0  0  0  0  0  0  0  0
  -53.2540   14.6600   34.4440 N   0  0  0  0  0  0  0  0  0  0  0  0
  -53.3780   16.8180   40.1820 O   0  0  0  0  0  0  0  0  0  0  0  0
  -52.0270   14.8980   38.9150 O   0  0  0  0  0  0  0  0  0  0  0  0
  -49.6130   15.2880   36.4090 O   0  0  0  0  0  0  0  0  0  0  0  0
  -55.2260   13.9230   31.2330 O   0  0  0  0  0  0  0  0  0  0  0  0
  -55.8450   14.7810   33.1430 O   0  5  0  0  0  0  0  0  0  0  0  0
  -57.6920   15.3040   36.3280 S   0  0  0  0  0  0  0  0  0  0  0  0
  -51.2070   13.4680   33.7250 S   0  0  0  0  0  0  0  0  0  0  0  0
  -55.6680   11.1340   32.7380 S   0  0  0  0  0  0  0  0  0  0  0  0
  2  1  1  6  0  0  0
  3  4  2  0  0  0  0
  3  2  1  0  0  0  0
  5  2  1  1  0  0  0
  5  6  1  0  0  0  0
  6  7  1  0  0  0  0
  7 17  1  0  0  0  0
  7 28  1  6  0  0  0
  7  5  1  0  0  0  0
  8 17  1  1  0  0  0
  8 25  1  0  0  0  0
  8 32  1  0  0  0  0
  9 10  1  0  0  0  0
  9 18  1  0  0  0  0
  9 19  1  1  0  0  0
 10 32  1  0  0  0  0
 11 26  1  0  0  0  0
 12 13  1  0  0  0  0
 12 16  1  0  0  0  0
 12 21  2  0  0  0  0
 13 14  2  0  0  0  0
 13 22  1  0  0  0  0
 14 31  1  0  0  0  0
 15 22  2  0  0  0  0
 15 23  1  0  0  0  0
 15 31  1  0  0  0  0
 16 24  1  0  0  0  0
 16 27  2  0  0  0  0
 17 24  1  1  0  0  0
 18 20  1  1  0  0  0
 18 25  1  0  0  0  0
 19 33  1  0  0  0  0
 20 29  2  0  0  0  0
 20 30  1  0  0  0  0
 21 26  1  0  0  0  0
M  CHG  1  30  -1
M  END
>  <HEADER>
    STRUCTURAL PROTEIN                      28-FEB-22   7U49              

>  <TITLE>
    DFC-CTX-M-15                                                          

>  <COMPND>
    MOL_ID: 1;                                                            
   2 MOLECULE: BETA-LACTAMASE;                                            
   3 CHAIN: A, B, C;                                                      
   4 EC: 3.5.2.6;                                                         
   5 ENGINEERED: YES                                                      

>  <SOURCE>
    MOL_ID: 1;                                                            
   2 ORGANISM_SCIENTIFIC: ESCHERICHIA COLI;                               
   3 ORGANISM_TAXID: 562;                                                 
   4 GENE: BLA, BLACTX-M-15;                                              
   5 EXPRESSION_SYSTEM: ESCHERICHIA COLI;                                 
   6 EXPRESSION_SYSTEM_TAXID: 562                                         

>  <KEYWDS>
    ANTIBIOTICS, COMPLEX, B-LACTAMASE, DFC, CTX-M-15, STRUCTURAL PROTEIN  

>  <EXPDTA>
    X-RAY DIFFRACTION                                                     

>  <AUTHOR>
    P.AHMADVAND,C.H.KANG                                                  

>  <REVDAT>
   1   25-MAY-22 7U49    0                                                

>  <JRNL>
      AUTH   P.AHMADVAND,J.J.AVILLAN,J.A.LEWIS,D.R.CALL,C.KANG            
      TITL   CHARACTERIZATION OF INTERACTIONS BETWEEN CTX-M-15 AND        
      TITL 2 CLAVULANIC ACID, DESFUROYLCEFTIOFUR, CEFTIOFUR, AMPICILLIN,  
      TITL 3 AND NITROCEFIN.                                              
      REF    INT J MOL SCI                 V.  23       2022              
      REFN                   ESSN 1422-0067                               
      PMID   35563620                                                     
      DOI    10.3390/IJMS23095229                                         

>  <REMARK>
   2                                                                      
   2 RESOLUTION.    1.72 ANGSTROMS.                                       
   3                                                                      
   3 REFINEMENT.                                                          
   3   PROGRAM     : PHENIX 1.17.1_3660                                   
   3   AUTHORS     : PAUL ADAMS,PAVEL AFONINE,VINCENT CHEN,IAN            
   3               : DAVIS,KRESHNA GOPAL,RALF GROSSE-KUNSTLEVE,           
   3               : LI-WEI HUNG,ROBERT IMMORMINO,TOM IOERGER,            
   3               : AIRLIE MCCOY,ERIK MCKEE,NIGEL MORIARTY,              
   3               : REETAL PAI,RANDY READ,JANE RICHARDSON,               
   3               : DAVID RICHARDSON,TOD ROMO,JIM SACCHETTINI,           
   3               : NICHOLAS SAUTER,JACOB SMITH,LAURENT                  
   3               : STORONI,TOM TERWILLIGER,PETER ZWART                  
   3                                                                      
   3    REFINEMENT TARGET : ML                                            
   3                                                                      
   3  DATA USED IN REFINEMENT.                                            
   3   RESOLUTION RANGE HIGH (ANGSTROMS) : 1.72                           
   3   RESOLUTION RANGE LOW  (ANGSTROMS) : 48.90                          
   3   MIN(FOBS/SIGMA_FOBS)              : 1.330                          
   3   COMPLETENESS FOR RANGE        (%) : 69.6                           
   3   NUMBER OF REFLECTIONS             : 62539                          
   3                                                                      
   3  FIT TO DATA USED IN REFINEMENT.                                     
   3   R VALUE     (WORKING + TEST SET) : 0.260                           
   3   R VALUE            (WORKING SET) : 0.258                           
   3   FREE R VALUE                     : 0.323                           
   3   FREE R VALUE TEST SET SIZE   (%) : 3.160                           
   3   FREE R VALUE TEST SET COUNT      : 1976                            
   3                                                                      
   3  FIT TO DATA USED IN REFINEMENT (IN BINS).                           
   3   BIN  RESOLUTION RANGE  COMPL.    NWORK NFREE   RWORK  RFREE        
   3     1 48.9000 -  4.1500    1.00     6435   210  0.1817 0.2634        
   3     2  4.1400 -  3.2900    1.00     6268   205  0.2096 0.2886        
   3     3  3.2900 -  2.8700    1.00     6241   203  0.2678 0.3164        
   3     4  2.8700 -  2.6100    1.00     6221   203  0.2999 0.3431        
   3     5  2.6100 -  2.4200    1.00     6216   203  0.3071 0.3727        
   3     6  2.4200 -  2.2800    1.00     6176   202  0.3181 0.3839        
   3     7  2.2800 -  2.1700    0.95     5900   192  0.3385 0.3610        
   3     8  2.1700 -  2.0700    0.83     5130   167  0.3507 0.3783        
   3     9  2.0700 -  1.9900    0.67     4146   136  0.3742 0.4383        
   3    10  1.9900 -  1.9200    0.48     2990    99  0.3853 0.4695        
   3    11  1.9200 -  1.8600    0.35     2177    73  0.3878 0.4245        
   3    12  1.8600 -  1.8100    0.25     1552    49  0.4198 0.4912        
   3    13  1.8100 -  1.7600    0.14      858    28  0.4166 0.4096        
   3    14  1.7600 -  1.7200    0.04      253     6  0.4891 0.7518        
   3                                                                      
   3  BULK SOLVENT MODELLING.                                             
   3   METHOD USED        : FLAT BULK SOLVENT MODEL                       
   3   SOLVENT RADIUS     : 1.11                                          
   3   SHRINKAGE RADIUS   : 0.90                                          
   3   K_SOL              : NULL                                          
   3   B_SOL              : NULL                                          
   3                                                                      
   3  ERROR ESTIMATES.                                                    
   3   COORDINATE ERROR (MAXIMUM-LIKELIHOOD BASED)     : 0.330            
   3   PHASE ERROR (DEGREES, MAXIMUM-LIKELIHOOD BASED) : 44.510           
   3                                                                      
   3  B VALUES.                                                           
   3   FROM WILSON PLOT           (A**2) : NULL                           
   3   MEAN B VALUE      (OVERALL, A**2) : 32.45                          
   3   OVERALL ANISOTROPIC B VALUE.                                       
   3    B11 (A**2) : NULL                                                 
   3    B22 (A**2) : NULL                                                 
   3    B33 (A**2) : NULL                                                 
   3    B12 (A**2) : NULL                                                 
   3    B13 (A**2) : NULL                                                 
   3    B23 (A**2) : NULL                                                 
   3                                                                      
   3  TWINNING INFORMATION.                                               
   3   FRACTION: NULL                                                     
   3   OPERATOR: NULL                                                     
   3                                                                      
   3  DEVIATIONS FROM IDEAL VALUES.                                       
   3                 RMSD          COUNT                                  
   3   BOND      :   NULL           NULL                                  
   3   ANGLE     :   NULL           NULL                                  
   3   CHIRALITY :   NULL           NULL                                  
   3   PLANARITY :   NULL           NULL                                  
   3   DIHEDRAL  :   NULL           NULL                                  
   3                                                                      
   3  TLS DETAILS                                                         
   3   NUMBER OF TLS GROUPS  : NULL                                       
   3                                                                      
   3  NCS DETAILS                                                         
   3   NUMBER OF NCS GROUPS : NULL                                        
   3                                                                      
   3  OTHER REFINEMENT REMARKS: NULL                                      
   4                                                                      
   4 7U49 COMPLIES WITH FORMAT V. 3.30, 13-JUL-11                         
 100                                                                      
 100 THIS ENTRY HAS BEEN PROCESSED BY RCSB ON 01-MAR-22.                  
 100 THE DEPOSITION ID IS D_1000261089.                                   
 200                                                                      
 200 EXPERIMENTAL DETAILS                                                 
 200  EXPERIMENT TYPE                : X-RAY DIFFRACTION                  
 200  DATE OF DATA COLLECTION        : 18-DEC-20                          
 200  TEMPERATURE           (KELVIN) : 80                                 
 200  PH                             : 6.8                                
 200  NUMBER OF CRYSTALS USED        : 1                                  
 200                                                                      
 200  SYNCHROTRON              (Y/N) : Y                                  
 200  RADIATION SOURCE               : ALS                                
 200  BEAMLINE                       : 5.0.1                              
 200  X-RAY GENERATOR MODEL          : NULL                               
 200  MONOCHROMATIC OR LAUE    (M/L) : M                                  
 200  WAVELENGTH OR RANGE        (A) : 1                                  
 200  MONOCHROMATOR                  : NULL                               
 200  OPTICS                         : NULL                               
 200                                                                      
 200  DETECTOR TYPE                  : PIXEL                              
 200  DETECTOR MANUFACTURER          : DECTRIS PILATUS3 6M                
 200  INTENSITY-INTEGRATION SOFTWARE : HKL-2000                           
 200  DATA SCALING SOFTWARE          : HKL-2000                           
 200                                                                      
 200  NUMBER OF UNIQUE REFLECTIONS   : 63310                              
 200  RESOLUTION RANGE HIGH      (A) : 1.710                              
 200  RESOLUTION RANGE LOW       (A) : 50.000                             
 200  REJECTION CRITERIA  (SIGMA(I)) : NULL                               
 200                                                                      
 200 OVERALL.                                                             
 200  COMPLETENESS FOR RANGE     (%) : 69.7                               
 200  DATA REDUNDANCY                : 5.600                              
 200  R MERGE                    (I) : 0.17900                            
 200  R SYM                      (I) : NULL                               
 200  <I/SIGMA(I)> FOR THE DATA SET  : 2.7000                             
 200                                                                      
 200 IN THE HIGHEST RESOLUTION SHELL.                                     
 200  HIGHEST RESOLUTION SHELL, RANGE HIGH (A) : 1.71                     
 200  HIGHEST RESOLUTION SHELL, RANGE LOW  (A) : 1.74                     
 200  COMPLETENESS FOR SHELL     (%) : 5.7                                
 200  DATA REDUNDANCY IN SHELL       : 1.50                               
 200  R MERGE FOR SHELL          (I) : 1.66200                            
 200  R SYM FOR SHELL            (I) : NULL                               
 200  <I/SIGMA(I)> FOR SHELL         : NULL                               
 200                                                                      
 200 DIFFRACTION PROTOCOL: SINGLE WAVELENGTH                              
 200 METHOD USED TO DETERMINE THE STRUCTURE: MOLECULAR REPLACEMENT        
 200 SOFTWARE USED: PHENIX                                                
 200 STARTING MODEL: 4HBT                                                 
 200                                                                      
 200 REMARK: NULL                                                         
 280                                                                      
 280 CRYSTAL                                                              
 280 SOLVENT CONTENT, VS   (%): 45.96                                     
 280 MATTHEWS COEFFICIENT, VM (ANGSTROMS**3/DA): 2.28                     
 280                                                                      
 280 CRYSTALLIZATION CONDITIONS: 300 MM AMMONIUM SULFATE, 30% PEG 4000,   
 280  PH 6.8, VAPOR DIFFUSION, HANGING DROP, TEMPERATURE 293K             
 290                                                                      
 290 CRYSTALLOGRAPHIC SYMMETRY                                            
 290 SYMMETRY OPERATORS FOR SPACE GROUP: C 1 2 1                          
 290                                                                      
 290      SYMOP   SYMMETRY                                                
 290     NNNMMM   OPERATOR                                                
 290       1555   X,Y,Z                                                   
 290       2555   -X,Y,-Z                                                 
 290       3555   X+1/2,Y+1/2,Z                                           
 290       4555   -X+1/2,Y+1/2,-Z                                         
 290                                                                      
 290     WHERE NNN -> OPERATOR NUMBER                                     
 290           MMM -> TRANSLATION VECTOR                                  
 290                                                                      
 290 CRYSTALLOGRAPHIC SYMMETRY TRANSFORMATIONS                            
 290 THE FOLLOWING TRANSFORMATIONS OPERATE ON THE ATOM/HETATM             
 290 RECORDS IN THIS ENTRY TO PRODUCE CRYSTALLOGRAPHICALLY                
 290 RELATED MOLECULES.                                                   
 290   SMTRY1   1  1.000000  0.000000  0.000000        0.00000            
 290   SMTRY2   1  0.000000  1.000000  0.000000        0.00000            
 290   SMTRY3   1  0.000000  0.000000  1.000000        0.00000            
 290   SMTRY1   2 -1.000000  0.000000  0.000000        0.00000            
 290   SMTRY2   2  0.000000  1.000000  0.000000        0.00000            
 290   SMTRY3   2  0.000000  0.000000 -1.000000        0.00000            
 290   SMTRY1   3  1.000000  0.000000  0.000000       85.47750            
 290   SMTRY2   3  0.000000  1.000000  0.000000       25.46950            
 290   SMTRY3   3  0.000000  0.000000  1.000000        0.00000            
 290   SMTRY1   4 -1.000000  0.000000  0.000000       85.47750            
 290   SMTRY2   4  0.000000  1.000000  0.000000       25.46950            
 290   SMTRY3   4  0.000000  0.000000 -1.000000        0.00000            
 290                                                                      
 290 REMARK: NULL                                                         
 300                                                                      
 300 BIOMOLECULE: 1, 2, 3                                                 
 300 SEE REMARK 350 FOR THE AUTHOR PROVIDED AND/OR PROGRAM                
 300 GENERATED ASSEMBLY INFORMATION FOR THE STRUCTURE IN                  
 300 THIS ENTRY. THE REMARK MAY ALSO PROVIDE INFORMATION ON               
 300 BURIED SURFACE AREA.                                                 
 350                                                                      
 350 COORDINATES FOR A COMPLETE MULTIMER REPRESENTING THE KNOWN           
 350 BIOLOGICALLY SIGNIFICANT OLIGOMERIZATION STATE OF THE                
 350 MOLECULE CAN BE GENERATED BY APPLYING BIOMT TRANSFORMATIONS          
 350 GIVEN BELOW.  BOTH NON-CRYSTALLOGRAPHIC AND                          
 350 CRYSTALLOGRAPHIC OPERATIONS ARE GIVEN.                               
 350                                                                      
 350 BIOMOLECULE: 1                                                       
 350 AUTHOR DETERMINED BIOLOGICAL UNIT: MONOMERIC                         
 350 SOFTWARE DETERMINED QUATERNARY STRUCTURE: MONOMERIC                  
 350 SOFTWARE USED: PISA                                                  
 350 APPLY THE FOLLOWING TO CHAINS: A                                     
 350   BIOMT1   1  1.000000  0.000000  0.000000        0.00000            
 350   BIOMT2   1  0.000000  1.000000  0.000000        0.00000            
 350   BIOMT3   1  0.000000  0.000000  1.000000        0.00000            
 350                                                                      
 350 BIOMOLECULE: 2                                                       
 350 AUTHOR DETERMINED BIOLOGICAL UNIT: MONOMERIC                         
 350 SOFTWARE DETERMINED QUATERNARY STRUCTURE: MONOMERIC                  
 350 SOFTWARE USED: PISA                                                  
 350 APPLY THE FOLLOWING TO CHAINS: B                                     
 350   BIOMT1   1  1.000000  0.000000  0.000000        0.00000            
 350   BIOMT2   1  0.000000  1.000000  0.000000        0.00000            
 350   BIOMT3   1  0.000000  0.000000  1.000000        0.00000            
 350                                                                      
 350 BIOMOLECULE: 3                                                       
 350 AUTHOR DETERMINED BIOLOGICAL UNIT: MONOMERIC                         
 350 SOFTWARE DETERMINED QUATERNARY STRUCTURE: MONOMERIC                  
 350 SOFTWARE USED: PISA                                                  
 350 APPLY THE FOLLOWING TO CHAINS: C                                     
 350   BIOMT1   1  1.000000  0.000000  0.000000        0.00000            
 350   BIOMT2   1  0.000000  1.000000  0.000000        0.00000            
 350   BIOMT3   1  0.000000  0.000000  1.000000        0.00000            
 375                                                                      
 375 SPECIAL POSITION                                                     
 375 THE FOLLOWING ATOMS ARE FOUND TO BE WITHIN 0.15 ANGSTROMS            
 375 OF A SYMMETRY RELATED ATOM AND ARE ASSUMED TO BE ON SPECIAL          
 375 POSITIONS.                                                           
 375                                                                      
 375 ATOM RES CSSEQI                                                      
 375      HOH B 429  LIES ON A SPECIAL POSITION.                          
 465                                                                      
 465 MISSING RESIDUES                                                     
 465 THE FOLLOWING RESIDUES WERE NOT LOCATED IN THE                       
 465 EXPERIMENT. (M=MODEL NUMBER; RES=RESIDUE NAME; C=CHAIN               
 465 IDENTIFIER; SSSEQ=SEQUENCE NUMBER; I=INSERTION CODE.)                
 465                                                                      
 465   M RES C SSSEQI                                                     
 465     MET A    -2                                                      
 465     VAL A    -1                                                      
 465     LYS A     0                                                      
 465     LYS A     1                                                      
 465     SER A     2                                                      
 465     LEU A     3                                                      
 465     ARG A     4                                                      
 465     GLN A     5                                                      
 465     PHE A     6                                                      
 465     THR A     7                                                      
 465     LEU A     8                                                      
 465     MET A     9                                                      
 465     ALA A    10                                                      
 465     THR A    11                                                      
 465     ALA A    12                                                      
 465     THR A    13                                                      
 465     VAL A    14                                                      
 465     THR A    15                                                      
 465     LEU A    16                                                      
 465     LEU A    17                                                      
 465     LEU A    18                                                      
 465     GLY A    19                                                      
 465     SER A    20                                                      
 465     VAL A    21                                                      
 465     PRO A    22                                                      
 465     LEU A    23                                                      
 465     TYR A    24                                                      
 465     ALA A    25                                                      
 465     GLN A    26                                                      
 465     MET B    -2                                                      
 465     VAL B    -1                                                      
 465     LYS B     0                                                      
 465     LYS B     1                                                      
 465     SER B     2                                                      
 465     LEU B     3                                                      
 465     ARG B     4                                                      
 465     GLN B     5                                                      
 465     PHE B     6                                                      
 465     THR B     7                                                      
 465     LEU B     8                                                      
 465     MET B     9                                                      
 465     ALA B    10                                                      
 465     THR B    11                                                      
 465     ALA B    12                                                      
 465     THR B    13                                                      
 465     VAL B    14                                                      
 465     THR B    15                                                      
 465     LEU B    16                                                      
 465     LEU B    17                                                      
 465     LEU B    18                                                      
 465     GLY B    19                                                      
 465     SER B    20                                                      
 465     VAL B    21                                                      
 465     PRO B    22                                                      
 465     LEU B    23                                                      
 465     TYR B    24                                                      
 465     ALA B    25                                                      
 465     GLN B    26                                                      
 465     MET C    -2                                                      
 465     VAL C    -1                                                      
 465     LYS C     0                                                      
 465     LYS C     1                                                      
 465     SER C     2                                                      
 465     LEU C     3                                                      
 465     ARG C     4                                                      
 465     GLN C     5                                                      
 465     PHE C     6                                                      
 465     THR C     7                                                      
 465     LEU C     8                                                      
 465     MET C     9                                                      
 465     ALA C    10                                                      
 465     THR C    11                                                      
 465     ALA C    12                                                      
 465     THR C    13                                                      
 465     VAL C    14                                                      
 465     THR C    15                                                      
 465     LEU C    16                                                      
 465     LEU C    17                                                      
 465     LEU C    18                                                      
 465     GLY C    19                                                      
 465     SER C    20                                                      
 465     VAL C    21                                                      
 465     PRO C    22                                                      
 465     LEU C    23                                                      
 465     TYR C    24                                                      
 465     ALA C    25                                                      
 465     GLN C    26                                                      
 480                                                                      
 480 ZERO OCCUPANCY ATOM                                                  
 480 THE FOLLOWING RESIDUES HAVE ATOMS MODELED WITH ZERO                  
 480 OCCUPANCY. THE LOCATION AND PROPERTIES OF THESE ATOMS                
 480 MAY NOT BE RELIABLE. (M=MODEL NUMBER; RES=RESIDUE NAME;              
 480 C=CHAIN IDENTIFIER; SSEQ=SEQUENCE NUMBER; I=INSERTION CODE):         
 480   M RES C SSEQI ATOMS                                                
 480     SER B  147   CA   CB   OG                                        
 500                                                                      
 500 GEOMETRY AND STEREOCHEMISTRY                                         
 500 SUBTOPIC: CLOSE CONTACTS IN SAME ASYMMETRIC UNIT                     
 500                                                                      
 500 THE FOLLOWING ATOMS ARE IN CLOSE CONTACT.                            
 500                                                                      
 500  ATM1  RES C  SSEQI   ATM2  RES C  SSEQI           DISTANCE          
 500   OG   SER C   237     N13  LD0 C   301              1.29            
 500   CB   SER B    70     C15  LD0 B   301              1.69            
 500   O    HOH A   435     O    HOH A   436              1.79            
 500   NH1  ARG C   254     O    LEU C   288              1.84            
 500   CB   SER A    70     C15  LD0 A   301              1.91            
 500   NZ   LYS B   197     O    HOH B   401              1.94            
 500   O    HOH C   418     O    HOH C   420              1.95            
 500   O    ALA B    53     O    HOH B   402              1.96            
 500   OD1  ASN C    55     NH2  ARG C   191              1.98            
 500   O    HOH A   406     O    HOH A   442              1.98            
 500   OG   SER A    70     O16  LD0 A   301              1.99            
 500   O    HOH C   411     O    HOH C   429              2.00            
 500   OG   SER C   237     C14  LD0 C   301              2.03            
 500   O    HOH A   422     O    HOH A   436              2.03            
 500   N    LYS B   252     O    HOH B   403              2.05            
 500   CB   SER A    70     O16  LD0 A   301              2.05            
 500   OD1  ASP B   201     NH2  ARG B   204              2.06            
 500   O    ALA B   255     O    HOH B   404              2.08            
 500   O    ASP C   286     O    HOH C   401              2.09            
 500   OG1  THR C    52     O    PRO C   256              2.10            
 500   NE2  GLN A   222     O    HOH A   401              2.11            
 500   NH1  ARG B   254     O    LEU B   288              2.13            
 500   O    GLN B   128     OG1  THR B   215              2.14            
 500   NH1  ARG A   254     O    HOH A   402              2.14            
 500   OD1  ASP B    54     OG   SER B    56              2.16            
 500   OG   SER C    70     O16  LD0 C   301              2.17            
 500   NH1  ARG A   254     O    HOH B   401              2.17            
 500   O    GLN C   128     OG1  THR C   215              2.17            
 500   N    ALA C   172     O    HOH C   402              2.18            
 500   NZ   LYS A   282     O    HOH A   403              2.18            
 500   OG1  THR B   216     OG1  THR B   235              2.19            
 500                                                                      
 500 REMARK: NULL                                                         
 500                                                                      
 500 GEOMETRY AND STEREOCHEMISTRY                                         
 500 SUBTOPIC: CLOSE CONTACTS                                             
 500                                                                      
 500 THE FOLLOWING ATOMS THAT ARE RELATED BY CRYSTALLOGRAPHIC             
 500 SYMMETRY ARE IN CLOSE CONTACT.  AN ATOM LOCATED WITHIN 0.15          
 500 ANGSTROMS OF A SYMMETRY RELATED ATOM IS ASSUMED TO BE ON A           
 500 SPECIAL POSITION AND IS, THEREFORE, LISTED IN REMARK 375             
 500 INSTEAD OF REMARK 500.  ATOMS WITH NON-BLANK ALTERNATE               
 500 LOCATION INDICATORS ARE NOT INCLUDED IN THE CALCULATIONS.            
 500                                                                      
 500 DISTANCE CUTOFF:                                                     
 500 2.2 ANGSTROMS FOR CONTACTS NOT INVOLVING HYDROGEN ATOMS              
 500 1.6 ANGSTROMS FOR CONTACTS INVOLVING HYDROGEN ATOMS                  
 500                                                                      
 500  ATM1  RES C  SSEQI   ATM2  RES C  SSEQI  SSYMOP   DISTANCE          
 500   O    HOH A   430     O    HOH C   423     4456     2.12            
 500                                                                      
 500 REMARK: NULL                                                         
 500                                                                      
 500 GEOMETRY AND STEREOCHEMISTRY                                         
 500 SUBTOPIC: TORSION ANGLES                                             
 500                                                                      
 500 TORSION ANGLES OUTSIDE THE EXPECTED RAMACHANDRAN REGIONS:            
 500 (M=MODEL NUMBER; RES=RESIDUE NAME; C=CHAIN IDENTIFIER;               
 500 SSEQ=SEQUENCE NUMBER; I=INSERTION CODE).                             
 500                                                                      
 500 STANDARD TABLE:                                                      
 500 FORMAT:(10X,I3,1X,A3,1X,A1,I4,A1,4X,F7.2,3X,F7.2)                    
 500                                                                      
 500 EXPECTED VALUES: GJ KLEYWEGT AND TA JONES (1996). PHI/PSI-           
 500 CHOLOGY: RAMACHANDRAN REVISITED. STRUCTURE 4, 1395 - 1400            
 500                                                                      
 500  M RES CSSEQI        PSI       PHI                                   
 500    CYS A  69     -153.06     72.23                                   
 500    GLU A  87       88.26   -160.00                                   
 500    ASN A  89      -95.40    -74.90                                   
 500    LEU A  90      -53.63     68.82                                   
 500    GLN A  93      135.54    -35.49                                   
 500    VAL A 103     -144.80   -122.13                                   
 500    ASN A 106       47.84   -140.81                                   
 500    SER A 220     -129.60   -107.90                                   
 500    ASP A 286      108.92    -53.23                                   
 500    ALA B  28        3.85    -63.47                                   
 500    CYS B  69     -142.68     64.24                                   
 500    PRO B  88      -93.87     -2.10                                   
 500    LEU B  90      -50.44     62.79                                   
 500    VAL B 103     -163.99   -125.70                                   
 500    ASN B 106       65.41   -165.02                                   
 500    ASN B 114       -3.09     79.33                                   
 500    SER B 220     -131.89    -99.16                                   
 500    ARG B 273       64.67   -115.90                                   
 500    ALA C  28       -5.11    147.38                                   
 500    ALA C  53      -70.56    -60.63                                   
 500    CYS C  69     -134.93     56.10                                   
 500    VAL C 103     -144.92   -105.47                                   
 500    ASN C 106       63.36    176.06                                   
 500    ASN C 114       19.56     57.82                                   
 500    ALA C 218      -17.71    -48.11                                   
 500    SER C 220      -98.36    -94.53                                   
 500    PRO C 226      112.95    -23.49                                   
 500    VAL C 230      150.72    -48.68                                   
 500                                                                      
 500 REMARK: NULL                                                         

>  <DBREF>
 7U49 A   -2   288  UNP    C7S9T0   C7S9T0_ECOLX    21    311             
 7U49 B   -2   288  UNP    C7S9T0   C7S9T0_ECOLX    21    311             
 7U49 C   -2   288  UNP    C7S9T0   C7S9T0_ECOLX    21    311             

>  <SEQRES>
   1 A  291  MET VAL LYS LYS SER LEU ARG GLN PHE THR LEU MET ALA          
   2 A  291  THR ALA THR VAL THR LEU LEU LEU GLY SER VAL PRO LEU          
   3 A  291  TYR ALA GLN THR ALA ASP VAL GLN GLN LYS LEU ALA GLU          
   4 A  291  LEU GLU ARG GLN SER GLY GLY ARG LEU GLY VAL ALA LEU          
   5 A  291  ILE ASN THR ALA ASP ASN SER GLN ILE LEU TYR ARG ALA          
   6 A  291  ASP GLU ARG PHE ALA MET CYS SER THR SER LYS VAL MET          
   7 A  291  ALA ALA ALA ALA VAL LEU LYS LYS SER GLU SER GLU PRO          
   8 A  291  ASN LEU LEU ASN GLN ARG VAL GLU ILE LYS LYS SER ASP          
   9 A  291  LEU VAL ASN TYR ASN PRO ILE ALA GLU LYS HIS VAL ASN          
  10 A  291  GLY THR MET SER LEU ALA GLU LEU SER ALA ALA ALA LEU          
  11 A  291  GLN TYR SER ASP ASN VAL ALA MET ASN LYS LEU ILE ALA          
  12 A  291  HIS VAL GLY GLY PRO ALA SER VAL THR ALA PHE ALA ARG          
  13 A  291  GLN LEU GLY ASP GLU THR PHE ARG LEU ASP ARG THR GLU          
  14 A  291  PRO THR LEU ASN THR ALA ILE PRO GLY ASP PRO ARG ASP          
  15 A  291  THR THR SER PRO ARG ALA MET ALA GLN THR LEU ARG ASN          
  16 A  291  LEU THR LEU GLY LYS ALA LEU GLY ASP SER GLN ARG ALA          
  17 A  291  GLN LEU VAL THR TRP MET LYS GLY ASN THR THR GLY ALA          
  18 A  291  ALA SER ILE GLN ALA GLY LEU PRO ALA SER TRP VAL VAL          
  19 A  291  GLY ASP LYS THR GLY SER GLY GLY TYR GLY THR THR ASN          
  20 A  291  ASP ILE ALA VAL ILE TRP PRO LYS ASP ARG ALA PRO LEU          
  21 A  291  ILE LEU VAL THR TYR PHE THR GLN PRO GLN PRO LYS ALA          
  22 A  291  GLU SER ARG ARG ASP VAL LEU ALA SER ALA ALA LYS ILE          
  23 A  291  VAL THR ASP GLY LEU                                          
   1 B  291  MET VAL LYS LYS SER LEU ARG GLN PHE THR LEU MET ALA          
   2 B  291  THR ALA THR VAL THR LEU LEU LEU GLY SER VAL PRO LEU          
   3 B  291  TYR ALA GLN THR ALA ASP VAL GLN GLN LYS LEU ALA GLU          
   4 B  291  LEU GLU ARG GLN SER GLY GLY ARG LEU GLY VAL ALA LEU          
   5 B  291  ILE ASN THR ALA ASP ASN SER GLN ILE LEU TYR ARG ALA          
   6 B  291  ASP GLU ARG PHE ALA MET CYS SER THR SER LYS VAL MET          
   7 B  291  ALA ALA ALA ALA VAL LEU LYS LYS SER GLU SER GLU PRO          
   8 B  291  ASN LEU LEU ASN GLN ARG VAL GLU ILE LYS LYS SER ASP          
   9 B  291  LEU VAL ASN TYR ASN PRO ILE ALA GLU LYS HIS VAL ASN          
  10 B  291  GLY THR MET SER LEU ALA GLU LEU SER ALA ALA ALA LEU          
  11 B  291  GLN TYR SER ASP ASN VAL ALA MET ASN LYS LEU ILE ALA          
  12 B  291  HIS VAL GLY GLY PRO ALA SER VAL THR ALA PHE ALA ARG          
  13 B  291  GLN LEU GLY ASP GLU THR PHE ARG LEU ASP ARG THR GLU          
  14 B  291  PRO THR LEU ASN THR ALA ILE PRO GLY ASP PRO ARG ASP          
  15 B  291  THR THR SER PRO ARG ALA MET ALA GLN THR LEU ARG ASN          
  16 B  291  LEU THR LEU GLY LYS ALA LEU GLY ASP SER GLN ARG ALA          
  17 B  291  GLN LEU VAL THR TRP MET LYS GLY ASN THR THR GLY ALA          
  18 B  291  ALA SER ILE GLN ALA GLY LEU PRO ALA SER TRP VAL VAL          
  19 B  291  GLY ASP LYS THR GLY SER GLY GLY TYR GLY THR THR ASN          
  20 B  291  ASP ILE ALA VAL ILE TRP PRO LYS ASP ARG ALA PRO LEU          
  21 B  291  ILE LEU VAL THR TYR PHE THR GLN PRO GLN PRO LYS ALA          
  22 B  291  GLU SER ARG ARG ASP VAL LEU ALA SER ALA ALA LYS ILE          
  23 B  291  VAL THR ASP GLY LEU                                          
   1 C  291  MET VAL LYS LYS SER LEU ARG GLN PHE THR LEU MET ALA          
   2 C  291  THR ALA THR VAL THR LEU LEU LEU GLY SER VAL PRO LEU          
   3 C  291  TYR ALA GLN THR ALA ASP VAL GLN GLN LYS LEU ALA GLU          
   4 C  291  LEU GLU ARG GLN SER GLY GLY ARG LEU GLY VAL ALA LEU          
   5 C  291  ILE ASN THR ALA ASP ASN SER GLN ILE LEU TYR ARG ALA          
   6 C  291  ASP GLU ARG PHE ALA MET CYS SER THR SER LYS VAL MET          
   7 C  291  ALA ALA ALA ALA VAL LEU LYS LYS SER GLU SER GLU PRO          
   8 C  291  ASN LEU LEU ASN GLN ARG VAL GLU ILE LYS LYS SER ASP          
   9 C  291  LEU VAL ASN TYR ASN PRO ILE ALA GLU LYS HIS VAL ASN          
  10 C  291  GLY THR MET SER LEU ALA GLU LEU SER ALA ALA ALA LEU          
  11 C  291  GLN TYR SER ASP ASN VAL ALA MET ASN LYS LEU ILE ALA          
  12 C  291  HIS VAL GLY GLY PRO ALA SER VAL THR ALA PHE ALA ARG          
  13 C  291  GLN LEU GLY ASP GLU THR PHE ARG LEU ASP ARG THR GLU          
  14 C  291  PRO THR LEU ASN THR ALA ILE PRO GLY ASP PRO ARG ASP          
  15 C  291  THR THR SER PRO ARG ALA MET ALA GLN THR LEU ARG ASN          
  16 C  291  LEU THR LEU GLY LYS ALA LEU GLY ASP SER GLN ARG ALA          
  17 C  291  GLN LEU VAL THR TRP MET LYS GLY ASN THR THR GLY ALA          
  18 C  291  ALA SER ILE GLN ALA GLY LEU PRO ALA SER TRP VAL VAL          
  19 C  291  GLY ASP LYS THR GLY SER GLY GLY TYR GLY THR THR ASN          
  20 C  291  ASP ILE ALA VAL ILE TRP PRO LYS ASP ARG ALA PRO LEU          
  21 C  291  ILE LEU VAL THR TYR PHE THR GLN PRO GLN PRO LYS ALA          
  22 C  291  GLU SER ARG ARG ASP VAL LEU ALA SER ALA ALA LYS ILE          
  23 C  291  VAL THR ASP GLY LEU                                          

>  <HET>
 LD0  A 301      27                                                       
 LD0  B 301      27                                                       
 LD0  C 301      27                                                       

>  <HETNAM>
     LD0 (2R,4S,5R)-2-[(1R)-1-{[(2Z)-2-(2-AMINO-1,3-THIAZOL-4-            
   2 LD0  YL)-2-(METHOXYIMINO)ACETYL]AMINO}-2-OXOETHYL]-5-                
   3 LD0  (SULFANYLMETHYL)-1,3-THIAZINANE-4-CARBOXYLIC ACID               

>  <FORMUL>
   4  LD0    3(C14 H19 N5 O5 S3)                                          
   7  HOH   *126(H2 O)                                                    

>  <HELIX>
   1 AA1 THR A   27  GLY A   42  1                                  16    
   2 AA2 CYS A   69  THR A   71  5                                   3    
   3 AA3 SER A   72  SER A   86  1                                  15    
   4 AA4 ILE A  108  HIS A  112  5                                   5    
   5 AA5 SER A  118  SER A  130  1                                  13    
   6 AA6 ASP A  131  VAL A  142  1                                  12    
   7 AA7 GLY A  144  LEU A  155  1                                  12    
   8 AA8 PRO A  167  THR A  171  5                                   5    
   9 AA9 SER A  182  LEU A  195  1                                  14    
  10 AB1 GLY A  200  GLY A  213  1                                  14    
  11 AB2 SER A  220  LEU A  225  5                                   6    
  12 AB3 ARG A  273  ASP A  286  1                                  14    
  13 AB4 ALA B   28  GLY B   42  1                                  15    
  14 AB5 CYS B   69  THR B   71  5                                   3    
  15 AB6 SER B   72  GLU B   85  1                                  14    
  16 AB7 LYS B   98  LEU B  102  5                                   5    
  17 AB8 ILE B  108  VAL B  113  5                                   6    
  18 AB9 LEU B  119  SER B  130  1                                  12    
  19 AC1 ASP B  131  GLY B  143  1                                  13    
  20 AC2 GLY B  144  LEU B  155  1                                  12    
  21 AC3 PRO B  167  THR B  171  5                                   5    
  22 AC4 SER B  182  LEU B  195  1                                  14    
  23 AC5 GLY B  200  GLY B  213  1                                  14    
  24 AC6 SER B  220  LEU B  225  1                                   6    
  25 AC7 GLY B  239  GLY B  241  5                                   3    
  26 AC8 ARG B  273  ASP B  286  1                                  14    
  27 AC9 ALA C   28  GLY C   42  1                                  15    
  28 AD1 CYS C   69  THR C   71  5                                   3    
  29 AD2 SER C   72  GLU C   87  1                                  16    
  30 AD3 ASN C   89  ASN C   92  5                                   4    
  31 AD4 LYS C   98  LEU C  102  5                                   5    
  32 AD5 ILE C  108  VAL C  113  5                                   6    
  33 AD6 LEU C  119  SER C  130  1                                  12    
  34 AD7 ASP C  131  GLY C  143  1                                  13    
  35 AD8 GLY C  144  LEU C  155  1                                  12    
  36 AD9 PRO C  167  THR C  171  5                                   5    
  37 AE1 SER C  182  LEU C  195  1                                  14    
  38 AE2 GLY C  200  GLY C  213  1                                  14    
  39 AE3 ILE C  221  LEU C  225  5                                   5    
  40 AE4 ARG C  273  VAL C  284  1                                  12    

>  <SHEET>
   1 AA1 5 GLN A  57  TYR A  60  0                                        
   2 AA1 5 ARG A  44  ASN A  51 -1  N  LEU A  49   O  ILE A  58           
   3 AA1 5 LEU A 257  THR A 264 -1  O  ILE A 258   N  ILE A  50           
   4 AA1 5 THR A 242  TRP A 250 -1  N  ILE A 249   O  LEU A 257           
   5 AA1 5 VAL A 230  GLY A 238 -1  N  GLY A 236   O  ASN A 244           
   1 AA2 2 PHE A  66  ALA A  67  0                                        
   2 AA2 2 THR A 180  THR A 181 -1  O  THR A 181   N  PHE A  66           
   1 AA3 2 GLU A  96  ILE A  97  0                                        
   2 AA3 2 GLY A 115  THR A 116 -1  O  GLY A 115   N  ILE A  97           
   1 AA4 5 SER B  56  TYR B  60  0                                        
   2 AA4 5 ARG B  44  ASN B  51 -1  N  ASN B  51   O  SER B  56           
   3 AA4 5 LEU B 257  THR B 264 -1  O  ILE B 258   N  ILE B  50           
   4 AA4 5 THR B 242  TRP B 250 -1  N  ILE B 249   O  LEU B 257           
   5 AA4 5 VAL B 230  GLY B 238 -1  N  GLY B 232   O  VAL B 248           
   1 AA5 2 PHE B  66  ALA B  67  0                                        
   2 AA5 2 THR B 180  THR B 181 -1  O  THR B 181   N  PHE B  66           
   1 AA6 2 ARG B  94  GLU B  96  0                                        
   2 AA6 2 THR B 116  SER B 118 -1  O  MET B 117   N  VAL B  95           
   1 AA7 5 SER C  56  TYR C  60  0                                        
   2 AA7 5 ARG C  44  ASN C  51 -1  N  LEU C  49   O  ILE C  58           
   3 AA7 5 LEU C 257  THR C 264 -1  O  THR C 264   N  ARG C  44           
   4 AA7 5 THR C 243  TRP C 250 -1  N  ILE C 249   O  LEU C 257           
   5 AA7 5 VAL C 230  SER C 237 -1  N  GLY C 232   O  VAL C 248           
   1 AA8 2 PHE C  66  ALA C  67  0                                        
   2 AA8 2 THR C 180  THR C 181 -1  O  THR C 181   N  PHE C  66           
   1 AA9 2 ARG C  94  ILE C  97  0                                        
   2 AA9 2 GLY C 115  SER C 118 -1  O  GLY C 115   N  ILE C  97           

>  <LINK>
       OG  SER A  70                 C15 LD0 A 301     1555   1555  1.38  
       OG  SER B  70                 C15 LD0 B 301     1555   1555  1.33  
       OG  SER C  70                 C15 LD0 C 301     1555   1555  1.38  

>  <CISPEP>
   1 GLU A  166    PRO A  167          0         4.28                     
   2 GLU B  166    PRO B  167          0        10.46                     
   3 GLU C  166    PRO C  167          0         4.96                     

>  <ORIGX1>
      1.000000  0.000000  0.000000        0.00000                         

>  <ORIGX2>
      0.000000  1.000000  0.000000        0.00000                         

>  <ORIGX3>
      0.000000  0.000000  1.000000        0.00000                         

>  <SCALE1>
      0.005849  0.000000  0.002537        0.00000                         

>  <SCALE2>
      0.000000  0.019631  0.000000        0.00000                         

>  <SCALE3>
      0.000000  0.000000  0.010225        0.00000                         

>  <MASTER>
      434    0    3   40   27    0    0    6 6096    3   84   69          

$$$$
