start_structures/Ligand_Substrate/Ligand_Complex_Stripped/LK5_2Q9N.pdb
 OpenBabel08222315203D

 28 29  0  0  1  0  0  0  0  0999 V2000
   21.0850   16.3040   21.2990 N   0  0  0  0  0  0  0  0  0  0  0  0
   20.3120   15.4080   22.1610 C   0  0  2  0  0  0  0  0  0  0  0  0
   20.0290   14.0180   21.5600 C   0  0  0  0  0  0  0  0  0  0  0  0
   19.6020   13.1040   22.2700 O   0  0  0  0  0  0  0  0  0  0  0  0
   19.0060   16.0840   22.5750 C   0  0  0  0  0  0  0  0  0  0  0  0
   19.2770   17.1480   23.4720 O   0  0  0  0  0  0  0  0  0  0  0  0
   23.0400   26.7730   22.1710 C   0  0  0  0  0  0  0  0  0  0  0  0
   23.4100   26.8730   23.5330 C   0  0  0  0  0  0  0  0  0  0  0  0
   22.1440   27.0040   24.3280 C   0  0  0  0  0  0  0  0  0  0  0  0
   21.8040   25.7580   25.1140 C   0  0  0  0  0  0  0  0  0  0  0  0
   20.8580   24.9690   24.3830 O   0  0  0  0  0  0  0  0  0  0  0  0
   21.2150   23.5570   24.2660 C   0  0  2  0  0  0  0  0  0  0  0  0
   21.8080   23.3350   22.8880 C   0  0  0  0  0  0  0  0  0  0  0  0
   20.7310   23.1830   21.8550 C   0  0  0  0  0  0  0  0  0  0  0  0
   19.9620   21.8930   22.0840 C   0  0  0  0  0  0  0  0  0  0  0  0
   19.1650   21.9470   23.3790 C   0  0  2  0  0  0  0  0  0  0  0  0
   19.9570   22.7280   24.4090 C   0  0  1  0  0  0  0  0  0  0  0  0
   19.2630   22.3590   25.6220 C   0  0  2  0  0  0  0  0  0  0  0  0
   19.5880   22.8470   26.9670 C   0  0  0  0  0  0  0  0  0  0  0  0
   19.8380   24.1190   27.1160 O   0  0  0  0  0  0  0  0  0  0  0  0
   19.6240   22.0050   27.9000 O   0  0  0  0  0  0  0  0  0  0  0  0
   18.7460   21.1110   25.5230 N   0  0  0  0  0  0  0  0  0  0  0  0
   18.7930   20.6500   24.1370 C   0  0  2  0  0  0  0  0  0  0  0  0
   19.7060   19.4530   23.9720 C   0  0  1  0  0  0  0  0  0  0  0  0
   20.5530   19.0390   25.0430 C   0  0  0  0  0  0  0  0  0  0  0  0
   21.9610   19.6090   25.4440 C   0  0  0  0  0  0  0  0  0  0  0  0
   19.4250   18.4390   22.9220 C   0  0  0  0  0  0  0  0  0  0  0  0
   19.2840   18.7480   21.7540 O   0  0  0  0  0  0  0  0  0  0  0  0
  2  1  1  6  0  0  0
  2  5  1  0  0  0  0
  3  2  1  0  0  0  0
  3  4  2  0  0  0  0
  5  6  1  0  0  0  0
  6 27  1  0  0  0  0
  7  8  1  0  0  0  0
  8  9  1  0  0  0  0
  9 10  1  0  0  0  0
 10 11  1  0  0  0  0
 12 11  1  6  0  0  0
 12 13  1  0  0  0  0
 12 17  1  0  0  0  0
 13 14  1  0  0  0  0
 14 15  1  0  0  0  0
 16 15  1  6  0  0  0
 16 17  1  0  0  0  0
 16 23  1  0  0  0  0
 17 18  1  0  0  0  0
 18 19  1  0  0  0  0
 18 22  1  0  0  0  0
 19 20  2  0  0  0  0
 19 21  1  0  0  0  0
 22 23  1  0  0  0  0
 23 24  1  0  0  0  0
 24 25  1  0  0  0  0
 24 27  1  0  0  0  0
 25 26  1  0  0  0  0
 27 28  2  0  0  0  0
M  END
>  <HEADER>
    HYDROLASE                               13-JUN-07   2Q9N              

>  <TITLE>
    4-SUBSTITUTED TRINEMS AS BROAD SPECTRUM-LACTAMASE                     
   2 INHIBITORS: STRUCTURE-BASED DESIGN, SYNTHESIS AND                    
   3 BIOLOGICAL ACTIVITY                                                  

>  <COMPND>
    MOL_ID: 1;                                                            
   2 MOLECULE: BETA-LACTAMASE;                                            
   3 CHAIN: A;                                                            
   4 SYNONYM: CEPHALOSPORINASE;                                           
   5 EC: 3.5.2.6                                                          

>  <SOURCE>
    MOL_ID: 1;                                                            
   2 ORGANISM_SCIENTIFIC: ENTEROBACTER CLOACAE;                           
   3 ORGANISM_TAXID: 550                                                  

>  <KEYWDS>
    BETA-LACTAMASE INHIBITOR, TRICYCLIC CARBAPENEM, HYDROLASE             

>  <EXPDTA>
    X-RAY DIFFRACTION                                                     

>  <AUTHOR>
    I.PLANTAN,L.SELIC,T.MESAR,P.STEFANIC ANDERLUH,M.OBLAK,                
   2 A.PREZELJ,L.HESSE,M.ANDREJASIC,M.VILAR,D.TURK,A.KOCIJAN,             
   3 T.PREVEC,G.VILFAN,D.KOCJAN,A.COPAR,U.URLEB,T.SOLMAJER                

>  <REVDAT>
   4   31-MAR-09 2Q9N    1       HEADER REMARK                            
   3   24-FEB-09 2Q9N    1       VERSN                                    
   2   28-AUG-07 2Q9N    1       JRNL                                     
   1   21-AUG-07 2Q9N    0                                                

>  <JRNL>
      AUTH   I.PLANTAN,L.SELIC,T.MESAR,P.S.ANDERLUH,M.OBLAK,              
      AUTH 2 A.PREZELJ,L.HESSE,M.ANDREJASIC,M.VILAR,D.TURK,               
      AUTH 3 A.KOCIJAN,T.PREVEC,G.VILFAN,D.KOCJAN,A.COPAR,                
      AUTH 4 U.URLEB,T.SOLMAJER                                           
      TITL   4-SUBSTITUTED TRINEMS AS BROAD SPECTRUM                      
      TITL 2 BETA-LACTAMASE INHIBITORS: STRUCTURE-BASED DESIGN,           
      TITL 3 SYNTHESIS, AND BIOLOGICAL ACTIVITY                           
      REF    J.MED.CHEM.                   V.  50  4113 2007              
      REFN                   ISSN 0022-2623                               
      PMID   17665896                                                     
      DOI    10.1021/JM0703237                                            

>  <REMARK>
   1                                                                      
   2                                                                      
   2 RESOLUTION.    2.20 ANGSTROMS.                                       
   3                                                                      
   3 REFINEMENT.                                                          
   3   PROGRAM     : MAIN                                                 
   3   AUTHORS     : TURK                                                 
   3                                                                      
   3  DATA USED IN REFINEMENT.                                            
   3   RESOLUTION RANGE HIGH (ANGSTROMS) : 2.20                           
   3   RESOLUTION RANGE LOW  (ANGSTROMS) : 50.00                          
   3   DATA CUTOFF            (SIGMA(F)) : 0.000                          
   3   DATA CUTOFF HIGH         (ABS(F)) : NULL                           
   3   DATA CUTOFF LOW          (ABS(F)) : NULL                           
   3   COMPLETENESS (WORKING+TEST)   (%) : 90.7                           
   3   NUMBER OF REFLECTIONS             : 17447                          
   3                                                                      
   3  FIT TO DATA USED IN REFINEMENT.                                     
   3   CROSS-VALIDATION METHOD          : NULL                            
   3   FREE R VALUE TEST SET SELECTION  : RANDOM                          
   3   R VALUE            (WORKING SET) : 0.263                           
   3   FREE R VALUE                     : 0.315                           
   3   FREE R VALUE TEST SET SIZE   (%) : 5.000                           
   3   FREE R VALUE TEST SET COUNT      : 872                             
   3   ESTIMATED ERROR OF FREE R VALUE  : NULL                            
   3                                                                      
   3  FIT IN THE HIGHEST RESOLUTION BIN.                                  
   3   TOTAL NUMBER OF BINS USED           : NULL                         
   3   BIN RESOLUTION RANGE HIGH       (A) : 2.20                         
   3   BIN RESOLUTION RANGE LOW        (A) : 2.28                         
   3   BIN COMPLETENESS (WORKING+TEST) (%) : 64.70                        
   3   REFLECTIONS IN BIN    (WORKING SET) : NULL                         
   3   BIN R VALUE           (WORKING SET) : NULL                         
   3   BIN FREE R VALUE                    : NULL                         
   3   BIN FREE R VALUE TEST SET SIZE  (%) : NULL                         
   3   BIN FREE R VALUE TEST SET COUNT     : NULL                         
   3   ESTIMATED ERROR OF BIN FREE R VALUE : NULL                         
   3                                                                      
   3  NUMBER OF NON-HYDROGEN ATOMS USED IN REFINEMENT.                    
   3   PROTEIN ATOMS            : 2751                                    
   3   NUCLEIC ACID ATOMS       : 0                                       
   3   HETEROGEN ATOMS          : 22                                      
   3   SOLVENT ATOMS            : 124                                     
   3                                                                      
   3  B VALUES.                                                           
   3   FROM WILSON PLOT           (A**2) : NULL                           
   3   MEAN B VALUE      (OVERALL, A**2) : NULL                           
   3   OVERALL ANISOTROPIC B VALUE.                                       
   3    B11 (A**2) : NULL                                                 
   3    B22 (A**2) : NULL                                                 
   3    B33 (A**2) : NULL                                                 
   3    B12 (A**2) : NULL                                                 
   3    B13 (A**2) : NULL                                                 
   3    B23 (A**2) : NULL                                                 
   3                                                                      
   3  ESTIMATED COORDINATE ERROR.                                         
   3   ESD FROM LUZZATI PLOT        (A) : NULL                            
   3   ESD FROM SIGMAA              (A) : NULL                            
   3   LOW RESOLUTION CUTOFF        (A) : NULL                            
   3                                                                      
   3  CROSS-VALIDATED ESTIMATED COORDINATE ERROR.                         
   3   ESD FROM C-V LUZZATI PLOT    (A) : NULL                            
   3   ESD FROM C-V SIGMAA          (A) : NULL                            
   3                                                                      
   3  RMS DEVIATIONS FROM IDEAL VALUES.                                   
   3   BOND LENGTHS                 (A) : 0.009                           
   3   BOND ANGLES            (DEGREES) : 1.74                            
   3   DIHEDRAL ANGLES        (DEGREES) : NULL                            
   3   IMPROPER ANGLES        (DEGREES) : NULL                            
   3                                                                      
   3  ISOTROPIC THERMAL MODEL : NULL                                      
   3                                                                      
   3  ISOTROPIC THERMAL FACTOR RESTRAINTS.    RMS    SIGMA                
   3   MAIN-CHAIN BOND              (A**2) : NULL  ; NULL                 
   3   MAIN-CHAIN ANGLE             (A**2) : NULL  ; NULL                 
   3   SIDE-CHAIN BOND              (A**2) : NULL  ; NULL                 
   3   SIDE-CHAIN ANGLE             (A**2) : NULL  ; NULL                 
   3                                                                      
   3  NCS MODEL : NULL                                                    
   3                                                                      
   3  NCS RESTRAINTS.                         RMS   SIGMA/WEIGHT          
   3   GROUP  1  POSITIONAL            (A) : NULL  ; NULL                 
   3   GROUP  1  B-FACTOR           (A**2) : NULL  ; NULL                 
   3                                                                      
   3  PARAMETER FILE  1  : NULL                                           
   3  TOPOLOGY FILE  1   : NULL                                           
   3                                                                      
   3  OTHER REFINEMENT REMARKS: NULL                                      
   4                                                                      
   4 2Q9N COMPLIES WITH FORMAT V. 3.15, 01-DEC-08                         
 100                                                                      
 100 THIS ENTRY HAS BEEN PROCESSED BY RCSB ON 15-JUN-07.                  
 100 THE RCSB ID CODE IS RCSB043323.                                      
 200                                                                      
 200 EXPERIMENTAL DETAILS                                                 
 200  EXPERIMENT TYPE                : X-RAY DIFFRACTION                  
 200  DATE OF DATA COLLECTION        : 22-DEC-04                          
 200  TEMPERATURE           (KELVIN) : 100                                
 200  PH                             : 4.8                                
 200  NUMBER OF CRYSTALS USED        : 1                                  
 200                                                                      
 200  SYNCHROTRON              (Y/N) : N                                  
 200  RADIATION SOURCE               : ROTATING ANODE                     
 200  BEAMLINE                       : NULL                               
 200  X-RAY GENERATOR MODEL          : RIGAKU RU200                       
 200  MONOCHROMATIC OR LAUE    (M/L) : M                                  
 200  WAVELENGTH OR RANGE        (A) : 1.5418                             
 200  MONOCHROMATOR                  : XENOCS OPTICAL COLLIMATOR          
 200  OPTICS                         : NULL                               
 200                                                                      
 200  DETECTOR TYPE                  : IMAGE PLATE                        
 200  DETECTOR MANUFACTURER          : MAR SCANNER 345 MM PLATE           
 200  INTENSITY-INTEGRATION SOFTWARE : HKL-2000                           
 200  DATA SCALING SOFTWARE          : HKL-2000                           
 200                                                                      
 200  NUMBER OF UNIQUE REFLECTIONS   : 17447                              
 200  RESOLUTION RANGE HIGH      (A) : 2.200                              
 200  RESOLUTION RANGE LOW       (A) : 50.000                             
 200  REJECTION CRITERIA  (SIGMA(I)) : 1.000                              
 200                                                                      
 200 OVERALL.                                                             
 200  COMPLETENESS FOR RANGE     (%) : 90.7                               
 200  DATA REDUNDANCY                : NULL                               
 200  R MERGE                    (I) : NULL                               
 200  R SYM                      (I) : NULL                               
 200  <I/SIGMA(I)> FOR THE DATA SET  : NULL                               
 200                                                                      
 200 IN THE HIGHEST RESOLUTION SHELL.                                     
 200  HIGHEST RESOLUTION SHELL, RANGE HIGH (A) : 2.20                     
 200  HIGHEST RESOLUTION SHELL, RANGE LOW  (A) : 2.28                     
 200  COMPLETENESS FOR SHELL     (%) : 64.7                               
 200  DATA REDUNDANCY IN SHELL       : NULL                               
 200  R MERGE FOR SHELL          (I) : NULL                               
 200  R SYM FOR SHELL            (I) : NULL                               
 200  <I/SIGMA(I)> FOR SHELL         : NULL                               
 200                                                                      
 200 DIFFRACTION PROTOCOL: SINGLE WAVELENGTH                              
 200 METHOD USED TO DETERMINE THE STRUCTURE: MOLECULAR REPLACEMENT        
 200 SOFTWARE USED: AMORE                                                 
 200 STARTING MODEL: PDB ENTRY 1XX2                                       
 200                                                                      
 200 REMARK: NULL                                                         
 280                                                                      
 280 CRYSTAL                                                              
 280 SOLVENT CONTENT, VS   (%): 41.94                                     
 280 MATTHEWS COEFFICIENT, VM (ANGSTROMS**3/DA): 2.12                     
 280                                                                      
 280 CRYSTALLIZATION CONDITIONS: 0.1M SODIUM ACETATE  0.2M AMMONIUM       
 280  ACETATE 22% PEG4000, PH 4.8, VAPOR DIFFUSION, HANGING DROP,         
 280  TEMPERATURE 292K                                                    
 290                                                                      
 290 CRYSTALLOGRAPHIC SYMMETRY                                            
 290 SYMMETRY OPERATORS FOR SPACE GROUP: P 21 21 2                        
 290                                                                      
 290      SYMOP   SYMMETRY                                                
 290     NNNMMM   OPERATOR                                                
 290       1555   X,Y,Z                                                   
 290       2555   -X,-Y,Z                                                 
 290       3555   -X+1/2,Y+1/2,-Z                                         
 290       4555   X+1/2,-Y+1/2,-Z                                         
 290                                                                      
 290     WHERE NNN -> OPERATOR NUMBER                                     
 290           MMM -> TRANSLATION VECTOR                                  
 290                                                                      
 290 CRYSTALLOGRAPHIC SYMMETRY TRANSFORMATIONS                            
 290 THE FOLLOWING TRANSFORMATIONS OPERATE ON THE ATOM/HETATM             
 290 RECORDS IN THIS ENTRY TO PRODUCE CRYSTALLOGRAPHICALLY                
 290 RELATED MOLECULES.                                                   
 290   SMTRY1   1  1.000000  0.000000  0.000000        0.00000            
 290   SMTRY2   1  0.000000  1.000000  0.000000        0.00000            
 290   SMTRY3   1  0.000000  0.000000  1.000000        0.00000            
 290   SMTRY1   2 -1.000000  0.000000  0.000000        0.00000            
 290   SMTRY2   2  0.000000 -1.000000  0.000000        0.00000            
 290   SMTRY3   2  0.000000  0.000000  1.000000        0.00000            
 290   SMTRY1   3 -1.000000  0.000000  0.000000       38.68850            
 290   SMTRY2   3  0.000000  1.000000  0.000000       34.49200            
 290   SMTRY3   3  0.000000  0.000000 -1.000000        0.00000            
 290   SMTRY1   4  1.000000  0.000000  0.000000       38.68850            
 290   SMTRY2   4  0.000000 -1.000000  0.000000       34.49200            
 290   SMTRY3   4  0.000000  0.000000 -1.000000        0.00000            
 290                                                                      
 290 REMARK: NULL                                                         
 300                                                                      
 300 BIOMOLECULE: 1                                                       
 300 SEE REMARK 350 FOR THE AUTHOR PROVIDED AND/OR PROGRAM                
 300 GENERATED ASSEMBLY INFORMATION FOR THE STRUCTURE IN                  
 300 THIS ENTRY. THE REMARK MAY ALSO PROVIDE INFORMATION ON               
 300 BURIED SURFACE AREA.                                                 
 350                                                                      
 350 COORDINATES FOR A COMPLETE MULTIMER REPRESENTING THE KNOWN           
 350 BIOLOGICALLY SIGNIFICANT OLIGOMERIZATION STATE OF THE                
 350 MOLECULE CAN BE GENERATED BY APPLYING BIOMT TRANSFORMATIONS          
 350 GIVEN BELOW.  BOTH NON-CRYSTALLOGRAPHIC AND                          
 350 CRYSTALLOGRAPHIC OPERATIONS ARE GIVEN.                               
 350                                                                      
 350 BIOMOLECULE: 1                                                       
 350 AUTHOR DETERMINED BIOLOGICAL UNIT: MONOMERIC                         
 350 APPLY THE FOLLOWING TO CHAINS: A                                     
 350   BIOMT1   1  1.000000  0.000000  0.000000        0.00000            
 350   BIOMT2   1  0.000000  1.000000  0.000000        0.00000            
 350   BIOMT3   1  0.000000  0.000000  1.000000        0.00000            
 480                                                                      
 480 ZERO OCCUPANCY ATOM                                                  
 480 THE FOLLOWING RESIDUES HAVE ATOMS MODELED WITH ZERO                  
 480 OCCUPANCY. THE LOCATION AND PROPERTIES OF THESE ATOMS                
 480 MAY NOT BE RELIABLE. (M=MODEL NUMBER; RES=RESIDUE NAME;              
 480 C=CHAIN IDENTIFIER; SSEQ=SEQUENCE NUMBER; I=INSERTION CODE):         
 480   M RES C SSEQI ATOMS                                                
 480     PRO A    2   CG    CD                                            
 480     GLU A    5   CD    OE1   OE2                                     
 480     ASN A   14   OD1   ND2                                           
 480     LYS A   21   CG    CD    CE    NZ                                
 480     LYS A   37   CG    CD    CE    NZ                                
 480     ARG A  133   NE    CZ    NH1   NH2                               
 480     GLN A  139   CG    CD    OE1   NE2                               
 480     SER A  212   OG                                                  
 480     VAL A  278   CG1   CG2                                           
 480     ASN A  281   OD1   ND2                                           
 480     LYS A  309   CG    CD    CE    NZ                                
 500                                                                      
 500 GEOMETRY AND STEREOCHEMISTRY                                         
 500 SUBTOPIC: CLOSE CONTACTS                                             
 500                                                                      
 500 THE FOLLOWING ATOMS THAT ARE RELATED BY CRYSTALLOGRAPHIC             
 500 SYMMETRY ARE IN CLOSE CONTACT.  AN ATOM LOCATED WITHIN 0.15          
 500 ANGSTROMS OF A SYMMETRY RELATED ATOM IS ASSUMED TO BE ON A           
 500 SPECIAL POSITION AND IS, THEREFORE, LISTED IN REMARK 375             
 500 INSTEAD OF REMARK 500.  ATOMS WITH NON-BLANK ALTERNATE               
 500 LOCATION INDICATORS ARE NOT INCLUDED IN THE CALCULATIONS.            
 500                                                                      
 500 DISTANCE CUTOFF:                                                     
 500 2.2 ANGSTROMS FOR CONTACTS NOT INVOLVING HYDROGEN ATOMS              
 500 1.6 ANGSTROMS FOR CONTACTS INVOLVING HYDROGEN ATOMS                  
 500                                                                      
 500  ATM1  RES C  SSEQI   ATM2  RES C  SSEQI  SSYMOP   DISTANCE          
 500   CD   GLN A   172     OE1  GLN A   172     2655     2.10            
 500                                                                      
 500 REMARK: NULL                                                         
 500                                                                      
 500 GEOMETRY AND STEREOCHEMISTRY                                         
 500 SUBTOPIC: COVALENT BOND ANGLES                                       
 500                                                                      
 500 THE STEREOCHEMICAL PARAMETERS OF THE FOLLOWING RESIDUES              
 500 HAVE VALUES WHICH DEVIATE FROM EXPECTED VALUES BY MORE               
 500 THAN 6*RMSD (M=MODEL NUMBER; RES=RESIDUE NAME; C=CHAIN               
 500 IDENTIFIER; SSEQ=SEQUENCE NUMBER; I=INSERTION CODE).                 
 500                                                                      
 500 STANDARD TABLE:                                                      
 500 FORMAT: (10X,I3,1X,A3,1X,A1,I4,A1,3(1X,A4,2X),12X,F5.1)              
 500                                                                      
 500 EXPECTED VALUES PROTEIN: ENGH AND HUBER, 1999                        
 500 EXPECTED VALUES NUCLEIC ACID: CLOWNEY ET AL 1996                     
 500                                                                      
 500  M RES CSSEQI ATM1   ATM2   ATM3                                     
 500    VAL A  32   C   -  N   -  CA  ANGL. DEV. =  15.7 DEGREES          
 500                                                                      
 500 REMARK: NULL                                                         
 500                                                                      
 500 GEOMETRY AND STEREOCHEMISTRY                                         
 500 SUBTOPIC: TORSION ANGLES                                             
 500                                                                      
 500 TORSION ANGLES OUTSIDE THE EXPECTED RAMACHANDRAN REGIONS:            
 500 (M=MODEL NUMBER; RES=RESIDUE NAME; C=CHAIN IDENTIFIER;               
 500 SSEQ=SEQUENCE NUMBER; I=INSERTION CODE).                             
 500                                                                      
 500 STANDARD TABLE:                                                      
 500 FORMAT:(10X,I3,1X,A3,1X,A1,I4,A1,4X,F7.2,3X,F7.2)                    
 500                                                                      
 500 EXPECTED VALUES: GJ KLEYWEGT AND TA JONES (1996). PHI/PSI-           
 500 CHOLOGY: RAMACHANDRAN REVISITED. STRUCTURE 4, 1395 - 1400            
 500                                                                      
 500  M RES CSSEQI        PSI       PHI                                   
 500    ASN A  14        4.33    -65.23                                   
 500    VAL A  32       71.18     82.38                                   
 500    TRP A  93       76.52   -152.93                                   
 500    LEU A  96       75.01    -68.64                                   
 500    GLN A 102      -73.96    -24.67                                   
 500    VAL A 178      -59.49   -124.37                                   
 500    ASP A 205       65.21    -22.38                                   
 500    PRO A 307      125.05    -37.31                                   
 500    ASN A 341       50.40    -96.60                                   
 500                                                                      
 500 REMARK: NULL                                                         
 500                                                                      
 500 GEOMETRY AND STEREOCHEMISTRY                                         
 500 SUBTOPIC: CHIRAL CENTERS                                             
 500                                                                      
 500 UNEXPECTED CONFIGURATION OF THE FOLLOWING CHIRAL                     
 500 CENTER(S) USING IMPROPER CA--C--CB--N CHIRALITY                      
 500 M=MODEL NUMBER; RES=RESIDUE NAME; C=CHAIN                            
 500 IDENTIFIER; SSEQ=SEQUENCE NUMBER; I=INSERTION CODE                   
 500                                                                      
 500 STANDARD TABLE:                                                      
 500 FORMAT: (11X,I3,1X,A3,1X,A1,I4,A1,6X,F5.1,6X,A1,10X,A1,3X,A16)       
 500                                                                      
 500   M RES CSSEQI    IMPROPER   EXPECTED   FOUND DETAILS                
 500     VAL A  32        11.6      L          L   OUTSIDE RANGE          
 500                                                                      
 500 REMARK: NULL                                                         
 525                                                                      
 525 SOLVENT                                                              
 525                                                                      
 525 THE SOLVENT MOLECULES HAVE CHAIN IDENTIFIERS THAT                    
 525 INDICATE THE POLYMER CHAIN WITH WHICH THEY ARE MOST                  
 525 CLOSELY ASSOCIATED. THE REMARK LISTS ALL THE SOLVENT                 
 525 MOLECULES WHICH ARE MORE THAN 5A AWAY FROM THE                       
 525 NEAREST POLYMER CHAIN (M = MODEL NUMBER;                             
 525 RES=RESIDUE NAME; C=CHAIN IDENTIFIER; SSEQ=SEQUENCE                  
 525 NUMBER; I=INSERTION CODE):                                           
 525                                                                      
 525  M RES CSSEQI                                                        
 525    HOH A 366        DISTANCE =  5.99 ANGSTROMS                       
 525    HOH A 395        DISTANCE =  6.09 ANGSTROMS                       
 525    HOH A 401        DISTANCE =  5.08 ANGSTROMS                       
 525    HOH A 425        DISTANCE =  5.73 ANGSTROMS                       
 525    HOH A 426        DISTANCE =  5.05 ANGSTROMS                       
 615                                                                      
 615 ZERO OCCUPANCY ATOM                                                  
 615 THE FOLLOWING RESIDUES HAVE ATOMS MODELED WITH ZERO                  
 615 OCCUPANCY. THE LOCATION AND PROPERTIES OF THESE ATOMS                
 615 MAY NOT BE RELIABLE. (M=MODEL NUMBER; RES=RESIDUE NAME;              
 615 C=CHAIN IDENTIFIER; SSEQ=SEQUENCE NUMBER; I=INSERTION CODE):         
 615   M RES C SSEQI                                                      
 615     LK5 A    0                                                       
 800                                                                      
 800 SITE                                                                 
 800 SITE_IDENTIFIER: AC1                                                 
 800 EVIDENCE_CODE: SOFTWARE                                              
 800 SITE_DESCRIPTION: BINDING SITE FOR RESIDUE LK5 A 0                   
 900                                                                      
 900 RELATED ENTRIES                                                      
 900 RELATED ID: 1XX2   RELATED DB: PDB                                   

>  <DBREF>
 2Q9N A    2   360  UNP    P05364   AMPC_ENTCL      22    380             

>  <SEQRES>
   1 A  359  PRO VAL SER GLU LYS GLN LEU ALA GLU VAL VAL ALA ASN          
   2 A  359  THR ILE THR PRO LEU MET LYS ALA GLN SER VAL PRO GLY          
   3 A  359  MET ALA VAL ALA VAL ILE TYR GLN GLY LYS PRO HIS TYR          
   4 A  359  TYR THR PHE GLY LYS ALA ASP ILE ALA ALA ASN LYS PRO          
   5 A  359  VAL THR PRO GLN THR LEU PHE GLU LEU GLY SER ILE SER          
   6 A  359  LYS THR PHE THR GLY VAL LEU GLY GLY ASP ALA ILE ALA          
   7 A  359  ARG GLY GLU ILE SER LEU ASP ASP ALA VAL THR ARG TYR          
   8 A  359  TRP PRO GLN LEU THR GLY LYS GLN TRP GLN GLY ILE ARG          
   9 A  359  MET LEU ASP LEU ALA THR TYR THR ALA GLY GLY LEU PRO          
  10 A  359  LEU GLN VAL PRO ASP GLU VAL THR ASP ASN ALA SER LEU          
  11 A  359  LEU ARG PHE TYR GLN ASN TRP GLN PRO GLN TRP LYS PRO          
  12 A  359  GLY THR THR ARG LEU TYR ALA ASN ALA SER ILE GLY LEU          
  13 A  359  PHE GLY ALA LEU ALA VAL LYS PRO SER GLY MET PRO TYR          
  14 A  359  GLU GLN ALA MET THR THR ARG VAL LEU LYS PRO LEU LYS          
  15 A  359  LEU ASP HIS THR TRP ILE ASN VAL PRO LYS ALA GLU GLU          
  16 A  359  ALA HIS TYR ALA TRP GLY TYR ARG ASP GLY LYS ALA VAL          
  17 A  359  ARG VAL SER PRO GLY MET LEU ASP ALA GLN ALA TYR GLY          
  18 A  359  VAL LYS THR ASN VAL GLN ASP MET ALA ASN TRP VAL MET          
  19 A  359  ALA ASN MET ALA PRO GLU ASN VAL ALA ASP ALA SER LEU          
  20 A  359  LYS GLN GLY ILE ALA LEU ALA GLN SER ARG TYR TRP ARG          
  21 A  359  ILE GLY SER MET TYR GLN GLY LEU GLY TRP GLU MET LEU          
  22 A  359  ASN TRP PRO VAL GLU ALA ASN THR VAL VAL GLU GLY SER          
  23 A  359  ASP SER LYS VAL ALA LEU ALA PRO LEU PRO VAL ALA GLU          
  24 A  359  VAL ASN PRO PRO ALA PRO PRO VAL LYS ALA SER TRP VAL          
  25 A  359  HIS LYS THR GLY SER THR GLY GLY PHE GLY SER TYR VAL          
  26 A  359  ALA PHE ILE PRO GLU LYS GLN ILE GLY ILE VAL MET LEU          
  27 A  359  ALA ASN THR SER TYR PRO ASN PRO ALA ARG VAL GLU ALA          
  28 A  359  ALA TYR HIS ILE LEU GLU ALA LEU                              

>  <HET>
 LK5  A   0      22                                                       

>  <HETNAM>
     LK5 (1S,4R,7AR)-4-BUTOXY-1-[(1R)-1-FORMYLPROPYL]-2,4,5,6,            
   2 LK5  7,7A-HEXAHYDRO-1H-ISOINDOLE-3-CARBOXYLIC ACID                   

>  <FORMUL>
   2  LK5    C17 H27 N O4                                                 
   3  HOH   *124(H2 O)                                                    

>  <HELIX>
   1   1 SER A    4  SER A   24  1                                  21    
   2   2 ILE A   65  ARG A   80  1                                  16    
   3   3 ALA A   88  TRP A   93  5                                   6    
   4   4 GLY A   98  GLN A  102  5                                   5    
   5   5 ARG A  105  THR A  111  1                                   7    
   6   6 ASP A  127  TRP A  138  1                                  12    
   7   7 ALA A  151  VAL A  163  1                                  13    
   8   8 PRO A  169  VAL A  178  1                                  10    
   9   9 LEU A  179  LYS A  183  5                                   5    
  10  10 PRO A  192  TYR A  199  5                                   8    
  11  11 LEU A  216  TYR A  221  1                                   6    
  12  12 ASN A  226  ALA A  239  1                                  14    
  13  13 PRO A  240  VAL A  243  5                                   4    
  14  14 ASP A  245  GLN A  256  1                                  12    
  15  15 GLU A  279  SER A  287  1                                   9    
  16  16 ASP A  288  LEU A  293  1                                   6    
  17  17 PRO A  330  LYS A  332  5                                   3    
  18  18 PRO A  345  ALA A  359  1                                  15    

>  <SHEET>
   1   A 4 LYS A  37  PRO A  38  0                                        
   2   A 4 GLY A  27  TYR A  34 -1  N  TYR A  34   O  LYS A  37           
   3   A 4 TYR A  41  ASP A  47 -1  O  TYR A  41   N  VAL A  30           
   4   A 4 LYS A  52  PRO A  53 -1  O  LYS A  52   N  ALA A  46           
   1   B 9 LYS A  37  PRO A  38  0                                        
   2   B 9 GLY A  27  TYR A  34 -1  N  TYR A  34   O  LYS A  37           
   3   B 9 ILE A 334  ALA A 340 -1  O  VAL A 337   N  ALA A  31           
   4   B 9 GLY A 323  ILE A 329 -1  N  ALA A 327   O  ILE A 336           
   5   B 9 SER A 311  SER A 318 -1  N  VAL A 313   O  PHE A 328           
   6   B 9 GLU A 272  ASN A 275 -1  N  LEU A 274   O  TRP A 312           
   7   B 9 MET A 265  GLN A 267 -1  N  TYR A 266   O  MET A 273           
   8   B 9 ARG A 258  ILE A 262 -1  N  ILE A 262   O  MET A 265           
   9   B 9 ALA A 299  ALA A 305 -1  O  ALA A 305   N  ARG A 258           
   1   C 3 PHE A  60  GLU A  61  0                                        
   2   C 3 LYS A 224  THR A 225 -1  O  THR A 225   N  PHE A  60           
   3   C 3 THR A 187  TRP A 188 -1  N  TRP A 188   O  LYS A 224           
   1   D 2 THR A 147  ARG A 148  0                                        
   2   D 2 LEU A 296  PRO A 297 -1  O  LEU A 296   N  ARG A 148           
   1   E 2 GLY A 202  ARG A 204  0                                        
   2   E 2 LYS A 207  VAL A 209 -1  O  LYS A 207   N  ARG A 204           

>  <LINK>
       C17 LK5 A   0                 OG  SER A  64     1555   1555  1.41  

>  <CISPEP>
   1 ALA A   31    VAL A   32          0         3.20                     
   2 TRP A  276    PRO A  277          0         0.19                     
   3 ASN A  302    PRO A  303          0        -0.10                     

>  <SITE>
   1 AC1  8 SER A  64  LEU A 119  GLN A 120  TYR A 150                    
   2 AC1  8 ASN A 152  GLY A 317  SER A 318  HOH A 484                    

>  <ORIGX1>
      1.000000  0.000000  0.000000        0.00000                         

>  <ORIGX2>
      0.000000  1.000000  0.000000        0.00000                         

>  <ORIGX3>
      0.000000  0.000000  1.000000        0.00000                         

>  <SCALE1>
      0.012924  0.000000  0.000000        0.00000                         

>  <SCALE2>
      0.000000  0.014496  0.000000        0.00000                         

>  <SCALE3>
      0.000000  0.000000  0.016124        0.00000                         

>  <MASTER>
      332    0    1   18   20    0    2    6 2897    1   23   28          

$$$$
