start_structures/Ligand_Substrate/Ligand_Complex_Stripped/LK7_2Q9M.pdb
 OpenBabel08222315203D

 25 26  0  0  1  0  0  0  0  0999 V2000
   20.5260   17.1470   21.5160 N   0  0  0  0  0  0  0  0  0  0  0  0
   19.8520   16.1370   22.3410 C   0  0  2  0  0  0  0  0  0  0  0  0
   19.6340   14.7780   21.6880 C   0  0  0  0  0  0  0  0  0  0  0  0
   19.2980   13.8210   22.3870 O   0  0  0  0  0  0  0  0  0  0  0  0
   18.5220   16.6570   22.8920 C   0  0  0  0  0  0  0  0  0  0  0  0
   18.7150   17.7580   23.7700 O   0  0  0  0  0  0  0  0  0  0  0  0
   17.9720   20.3850   26.5930 C   0  0  0  0  0  0  0  0  0  0  0  0
   18.7970   19.9090   25.3900 C   0  0  0  0  0  0  0  0  0  0  0  0
   18.3950   20.0660   24.0840 C   0  0  2  0  0  0  0  0  0  0  0  0
   18.3260   18.8940   23.2360 C   0  0  0  0  0  0  0  0  0  0  0  0
   18.5170   19.0910   22.0420 O   0  0  0  0  0  0  0  0  0  0  0  0
   18.1610   21.4930   23.5120 C   0  0  2  0  0  0  0  0  0  0  0  0
   18.1160   22.3270   24.7610 N   0  0  0  0  0  0  0  0  0  0  0  0
   17.6110   23.4400   24.3310 C   0  0  2  0  0  0  0  0  0  0  0  0
   17.9630   24.7810   24.9150 C   0  0  0  0  0  0  0  0  0  0  0  0
   18.2050   25.7790   24.2370 O   0  0  0  0  0  0  0  0  0  0  0  0
   18.0460   24.8750   26.1570 O   0  0  0  0  0  0  0  0  0  0  0  0
   16.7010   23.1810   23.4990 C   0  0  1  0  0  0  0  0  0  0  0  0
   16.5970   21.8100   23.3560 C   0  0  2  0  0  0  0  0  0  0  0  0
   15.5480   21.1780   24.2550 C   0  0  0  0  0  0  0  0  0  0  0  0
   14.1920   21.8680   24.0120 C   0  0  0  0  0  0  0  0  0  0  0  0
   14.3670   23.4220   24.0350 C   0  0  0  0  0  0  0  0  0  0  0  0
   15.5180   23.9520   23.1500 C   0  0  2  0  0  0  0  0  0  0  0  0
   15.1420   24.1130   21.7860 O   0  0  0  0  0  0  0  0  0  0  0  0
   14.8120   25.3970   22.0810 C   0  0  0  0  0  0  0  0  0  0  0  0
  2  1  1  6  0  0  0
  2  5  1  0  0  0  0
  3  2  1  0  0  0  0
  3  4  2  0  0  0  0
  5  6  1  0  0  0  0
  6 10  1  0  0  0  0
  7  8  1  0  0  0  0
  9  8  1  6  0  0  0
  9 10  1  0  0  0  0
 10 11  2  0  0  0  0
 12  9  1  1  0  0  0
 12 13  1  0  0  0  0
 12 19  1  0  0  0  0
 13 14  1  0  0  0  0
 14 15  1  1  0  0  0
 14 18  1  0  0  0  0
 15 16  2  0  0  0  0
 15 17  1  0  0  0  0
 18 19  1  0  0  0  0
 18 23  1  0  0  0  0
 19 20  1  0  0  0  0
 20 21  1  0  0  0  0
 21 22  1  0  0  0  0
 22 23  1  0  0  0  0
 23 24  1  0  0  0  0
 24 25  1  0  0  0  0
M  END
>  <HEADER>
    HYDROLASE                               13-JUN-07   2Q9M              

>  <TITLE>
    4-SUBSTITUTED TRINEMS AS BROAD SPECTRUM-LACTAMASE                     
   2 INHIBITORS: STRUCTURE-BASED DESIGN, SYNTHESIS AND                    
   3 BIOLOGICAL ACTIVITY                                                  

>  <COMPND>
    MOL_ID: 1;                                                            
   2 MOLECULE: BETA-LACTAMASE;                                            
   3 CHAIN: A;                                                            
   4 SYNONYM: CEPHALOSPORINASE;                                           
   5 EC: 3.5.2.6                                                          

>  <SOURCE>
    MOL_ID: 1;                                                            
   2 ORGANISM_SCIENTIFIC: ENTEROBACTER CLOACAE;                           
   3 ORGANISM_TAXID: 550;                                                 
   4 STRAIN: 908R                                                         

>  <KEYWDS>
    BETA-LACTAMASE INHIBITOR, TRICYCLIC CARBAPENEM, HYDROLASE             

>  <EXPDTA>
    X-RAY DIFFRACTION                                                     

>  <AUTHOR>
    I.PLANTAN,L.SELIC,T.MESAR,P.STEFANIC ANDERLUH,M.OBLAK,                
   2 A.PREZELJ,L.HESSE,M.ANDREJASIC,M.VILAR,D.TURK,A.KOCIJAN,             
   3 T.PREVEC,G.VILFAN,D.KOCJAN,A.COPAR,U.URLEB,T.SOLMAJER                

>  <REVDAT>
   4   31-MAR-09 2Q9M    1       REMARK                                   
   3   24-FEB-09 2Q9M    1       VERSN                                    
   2   28-AUG-07 2Q9M    1       JRNL                                     
   1   21-AUG-07 2Q9M    0                                                

>  <JRNL>
      AUTH   I.PLANTAN,L.SELIC,T.MESAR,P.S.ANDERLUH,M.OBLAK,              
      AUTH 2 A.PREZELJ,L.HESSE,M.ANDREJASIC,M.VILAR,D.TURK,               
      AUTH 3 A.KOCIJAN,T.PREVEC,G.VILFAN,D.KOCJAN,A.COPAR,                
      AUTH 4 U.URLEB,T.SOLMAJER                                           
      TITL   4-SUBSTITUTED TRINEMS AS BROAD SPECTRUM                      
      TITL 2 BETA-LACTAMASE INHIBITORS: STRUCTURE-BASED DESIGN,           
      TITL 3 SYNTHESIS, AND BIOLOGICAL ACTIVITY                           
      REF    J.MED.CHEM.                   V.  50  4113 2007              
      REFN                   ISSN 0022-2623                               
      PMID   17665896                                                     
      DOI    10.1021/JM0703237                                            

>  <REMARK>
   1                                                                      
   2                                                                      
   2 RESOLUTION.    2.05 ANGSTROMS.                                       
   3                                                                      
   3 REFINEMENT.                                                          
   3   PROGRAM     : MAIN                                                 
   3   AUTHORS     : TURK                                                 
   3                                                                      
   3  DATA USED IN REFINEMENT.                                            
   3   RESOLUTION RANGE HIGH (ANGSTROMS) : 2.05                           
   3   RESOLUTION RANGE LOW  (ANGSTROMS) : 30.00                          
   3   DATA CUTOFF            (SIGMA(F)) : 0.000                          
   3   DATA CUTOFF HIGH         (ABS(F)) : NULL                           
   3   DATA CUTOFF LOW          (ABS(F)) : NULL                           
   3   COMPLETENESS (WORKING+TEST)   (%) : 96.8                           
   3   NUMBER OF REFLECTIONS             : 21206                          
   3                                                                      
   3  FIT TO DATA USED IN REFINEMENT.                                     
   3   CROSS-VALIDATION METHOD          : NULL                            
   3   FREE R VALUE TEST SET SELECTION  : RANDOM                          
   3   R VALUE            (WORKING SET) : 0.209                           
   3   FREE R VALUE                     : 0.245                           
   3   FREE R VALUE TEST SET SIZE   (%) : 5.000                           
   3   FREE R VALUE TEST SET COUNT      : 1060                            
   3   ESTIMATED ERROR OF FREE R VALUE  : NULL                            
   3                                                                      
   3  FIT IN THE HIGHEST RESOLUTION BIN.                                  
   3   TOTAL NUMBER OF BINS USED           : NULL                         
   3   BIN RESOLUTION RANGE HIGH       (A) : 2.05                         
   3   BIN RESOLUTION RANGE LOW        (A) : 2.09                         
   3   BIN COMPLETENESS (WORKING+TEST) (%) : 84.90                        
   3   REFLECTIONS IN BIN    (WORKING SET) : NULL                         
   3   BIN R VALUE           (WORKING SET) : NULL                         
   3   BIN FREE R VALUE                    : NULL                         
   3   BIN FREE R VALUE TEST SET SIZE  (%) : NULL                         
   3   BIN FREE R VALUE TEST SET COUNT     : NULL                         
   3   ESTIMATED ERROR OF BIN FREE R VALUE : NULL                         
   3                                                                      
   3  NUMBER OF NON-HYDROGEN ATOMS USED IN REFINEMENT.                    
   3   PROTEIN ATOMS            : 2751                                    
   3   NUCLEIC ACID ATOMS       : 0                                       
   3   HETEROGEN ATOMS          : 19                                      
   3   SOLVENT ATOMS            : 368                                     
   3                                                                      
   3  B VALUES.                                                           
   3   FROM WILSON PLOT           (A**2) : NULL                           
   3   MEAN B VALUE      (OVERALL, A**2) : NULL                           
   3   OVERALL ANISOTROPIC B VALUE.                                       
   3    B11 (A**2) : NULL                                                 
   3    B22 (A**2) : NULL                                                 
   3    B33 (A**2) : NULL                                                 
   3    B12 (A**2) : NULL                                                 
   3    B13 (A**2) : NULL                                                 
   3    B23 (A**2) : NULL                                                 
   3                                                                      
   3  ESTIMATED COORDINATE ERROR.                                         
   3   ESD FROM LUZZATI PLOT        (A) : NULL                            
   3   ESD FROM SIGMAA              (A) : NULL                            
   3   LOW RESOLUTION CUTOFF        (A) : NULL                            
   3                                                                      
   3  CROSS-VALIDATED ESTIMATED COORDINATE ERROR.                         
   3   ESD FROM C-V LUZZATI PLOT    (A) : NULL                            
   3   ESD FROM C-V SIGMAA          (A) : NULL                            
   3                                                                      
   3  RMS DEVIATIONS FROM IDEAL VALUES.                                   
   3   BOND LENGTHS                 (A) : 0.012                           
   3   BOND ANGLES            (DEGREES) : 1.69                            
   3   DIHEDRAL ANGLES        (DEGREES) : NULL                            
   3   IMPROPER ANGLES        (DEGREES) : NULL                            
   3                                                                      
   3  ISOTROPIC THERMAL MODEL : NULL                                      
   3                                                                      
   3  ISOTROPIC THERMAL FACTOR RESTRAINTS.    RMS    SIGMA                
   3   MAIN-CHAIN BOND              (A**2) : NULL  ; NULL                 
   3   MAIN-CHAIN ANGLE             (A**2) : NULL  ; NULL                 
   3   SIDE-CHAIN BOND              (A**2) : NULL  ; NULL                 
   3   SIDE-CHAIN ANGLE             (A**2) : NULL  ; NULL                 
   3                                                                      
   3  NCS MODEL : NULL                                                    
   3                                                                      
   3  NCS RESTRAINTS.                         RMS   SIGMA/WEIGHT          
   3   GROUP  1  POSITIONAL            (A) : NULL  ; NULL                 
   3   GROUP  1  B-FACTOR           (A**2) : NULL  ; NULL                 
   3                                                                      
   3  PARAMETER FILE  1  : NULL                                           
   3  TOPOLOGY FILE  1   : NULL                                           
   3                                                                      
   3  OTHER REFINEMENT REMARKS: NULL                                      
   4                                                                      
   4 2Q9M COMPLIES WITH FORMAT V. 3.15, 01-DEC-08                         
 100                                                                      
 100 THIS ENTRY HAS BEEN PROCESSED BY RCSB ON 14-JUN-07.                  
 100 THE RCSB ID CODE IS RCSB043322.                                      
 200                                                                      
 200 EXPERIMENTAL DETAILS                                                 
 200  EXPERIMENT TYPE                : X-RAY DIFFRACTION                  
 200  DATE OF DATA COLLECTION        : 29-MAY-01                          
 200  TEMPERATURE           (KELVIN) : 100                                
 200  PH                             : 7.0                                
 200  NUMBER OF CRYSTALS USED        : 1                                  
 200                                                                      
 200  SYNCHROTRON              (Y/N) : Y                                  
 200  RADIATION SOURCE               : ELETTRA                            
 200  BEAMLINE                       : 5.2R                               
 200  X-RAY GENERATOR MODEL          : NULL                               
 200  MONOCHROMATIC OR LAUE    (M/L) : M                                  
 200  WAVELENGTH OR RANGE        (A) : 1.00                               
 200  MONOCHROMATOR                  : DOUBLE CRYSTAL (SI111, SI220)      
 200  OPTICS                         : NULL                               
 200                                                                      
 200  DETECTOR TYPE                  : CCD                                
 200  DETECTOR MANUFACTURER          : MAR CCD 165 MM                     
 200  INTENSITY-INTEGRATION SOFTWARE : HKL-2000                           
 200  DATA SCALING SOFTWARE          : HKL-2000                           
 200                                                                      
 200  NUMBER OF UNIQUE REFLECTIONS   : 21206                              
 200  RESOLUTION RANGE HIGH      (A) : 2.050                              
 200  RESOLUTION RANGE LOW       (A) : 30.000                             
 200  REJECTION CRITERIA  (SIGMA(I)) : 1.000                              
 200                                                                      
 200 OVERALL.                                                             
 200  COMPLETENESS FOR RANGE     (%) : 96.8                               
 200  DATA REDUNDANCY                : NULL                               
 200  R MERGE                    (I) : NULL                               
 200  R SYM                      (I) : NULL                               
 200  <I/SIGMA(I)> FOR THE DATA SET  : NULL                               
 200                                                                      
 200 IN THE HIGHEST RESOLUTION SHELL.                                     
 200  HIGHEST RESOLUTION SHELL, RANGE HIGH (A) : 2.05                     
 200  HIGHEST RESOLUTION SHELL, RANGE LOW  (A) : 2.09                     
 200  COMPLETENESS FOR SHELL     (%) : 84.9                               
 200  DATA REDUNDANCY IN SHELL       : NULL                               
 200  R MERGE FOR SHELL          (I) : NULL                               
 200  R SYM FOR SHELL            (I) : NULL                               
 200  <I/SIGMA(I)> FOR SHELL         : NULL                               
 200                                                                      
 200 DIFFRACTION PROTOCOL: SINGLE WAVELENGTH                              
 200 METHOD USED TO DETERMINE THE STRUCTURE: MOLECULAR REPLACEMENT        
 200 SOFTWARE USED: AMORE                                                 
 200 STARTING MODEL: PDB ENTRY 1XX2                                       
 200                                                                      
 200 REMARK: NULL                                                         
 280                                                                      
 280 CRYSTAL                                                              
 280 SOLVENT CONTENT, VS   (%): 42.79                                     
 280 MATTHEWS COEFFICIENT, VM (ANGSTROMS**3/DA): 2.15                     
 280                                                                      
 280 CRYSTALLIZATION CONDITIONS: 0.05M CACODYLATE, 30% PEG8000, PH        
 280  7.0, VAPOR DIFFUSION, HANGING DROP, TEMPERATURE 292K                
 290                                                                      
 290 CRYSTALLOGRAPHIC SYMMETRY                                            
 290 SYMMETRY OPERATORS FOR SPACE GROUP: P 21 21 2                        
 290                                                                      
 290      SYMOP   SYMMETRY                                                
 290     NNNMMM   OPERATOR                                                
 290       1555   X,Y,Z                                                   
 290       2555   -X,-Y,Z                                                 
 290       3555   -X+1/2,Y+1/2,-Z                                         
 290       4555   X+1/2,-Y+1/2,-Z                                         
 290                                                                      
 290     WHERE NNN -> OPERATOR NUMBER                                     
 290           MMM -> TRANSLATION VECTOR                                  
 290                                                                      
 290 CRYSTALLOGRAPHIC SYMMETRY TRANSFORMATIONS                            
 290 THE FOLLOWING TRANSFORMATIONS OPERATE ON THE ATOM/HETATM             
 290 RECORDS IN THIS ENTRY TO PRODUCE CRYSTALLOGRAPHICALLY                
 290 RELATED MOLECULES.                                                   
 290   SMTRY1   1  1.000000  0.000000  0.000000        0.00000            
 290   SMTRY2   1  0.000000  1.000000  0.000000        0.00000            
 290   SMTRY3   1  0.000000  0.000000  1.000000        0.00000            
 290   SMTRY1   2 -1.000000  0.000000  0.000000        0.00000            
 290   SMTRY2   2  0.000000 -1.000000  0.000000        0.00000            
 290   SMTRY3   2  0.000000  0.000000  1.000000        0.00000            
 290   SMTRY1   3 -1.000000  0.000000  0.000000       38.32600            
 290   SMTRY2   3  0.000000  1.000000  0.000000       34.88800            
 290   SMTRY3   3  0.000000  0.000000 -1.000000        0.00000            
 290   SMTRY1   4  1.000000  0.000000  0.000000       38.32600            
 290   SMTRY2   4  0.000000 -1.000000  0.000000       34.88800            
 290   SMTRY3   4  0.000000  0.000000 -1.000000        0.00000            
 290                                                                      
 290 REMARK: NULL                                                         
 300                                                                      
 300 BIOMOLECULE: 1                                                       
 300 SEE REMARK 350 FOR THE AUTHOR PROVIDED AND/OR PROGRAM                
 300 GENERATED ASSEMBLY INFORMATION FOR THE STRUCTURE IN                  
 300 THIS ENTRY. THE REMARK MAY ALSO PROVIDE INFORMATION ON               
 300 BURIED SURFACE AREA.                                                 
 350                                                                      
 350 COORDINATES FOR A COMPLETE MULTIMER REPRESENTING THE KNOWN           
 350 BIOLOGICALLY SIGNIFICANT OLIGOMERIZATION STATE OF THE                
 350 MOLECULE CAN BE GENERATED BY APPLYING BIOMT TRANSFORMATIONS          
 350 GIVEN BELOW.  BOTH NON-CRYSTALLOGRAPHIC AND                          
 350 CRYSTALLOGRAPHIC OPERATIONS ARE GIVEN.                               
 350                                                                      
 350 BIOMOLECULE: 1                                                       
 350 AUTHOR DETERMINED BIOLOGICAL UNIT: MONOMERIC                         
 350 APPLY THE FOLLOWING TO CHAINS: A                                     
 350   BIOMT1   1  1.000000  0.000000  0.000000        0.00000            
 350   BIOMT2   1  0.000000  1.000000  0.000000        0.00000            
 350   BIOMT3   1  0.000000  0.000000  1.000000        0.00000            
 480                                                                      
 480 ZERO OCCUPANCY ATOM                                                  
 480 THE FOLLOWING RESIDUES HAVE ATOMS MODELED WITH ZERO                  
 480 OCCUPANCY. THE LOCATION AND PROPERTIES OF THESE ATOMS                
 480 MAY NOT BE RELIABLE. (M=MODEL NUMBER; RES=RESIDUE NAME;              
 480 C=CHAIN IDENTIFIER; SSEQ=SEQUENCE NUMBER; I=INSERTION CODE):         
 480   M RES C SSEQI ATOMS                                                
 480     PRO A    2   CG    CD                                            
 480     GLU A    5   CD    OE1   OE2                                     
 480     ASN A   14   OD1   ND2                                           
 480     LYS A   21   CG    CD    CE    NZ                                
 480     LYS A   37   CG    CD    CE    NZ                                
 480     ILE A   48   CG1   CG2   CD1                                     
 480     ARG A  133   CG    CD    NE    CZ    NH1   NH2                   
 480     ASN A  137   ND2                                                 
 480     GLN A  139   CG    CD    OE1   NE2                               
 480     LYS A  143   NZ                                                  
 480     LYS A  207   CE    NZ                                            
 480     SER A  212   OG                                                  
 480     LYS A  249   NZ                                                  
 480     VAL A  278   CG1   CG2                                           
 480     GLU A  279   OE1   OE2                                           
 480     ASN A  281   OD1   ND2                                           
 480     LYS A  290   CB    CG    CD    CE    NZ                          
 480     LYS A  309   CG    CD    CE    NZ                                
 480     LYS A  332   CE    NZ                                            
 500                                                                      
 500 GEOMETRY AND STEREOCHEMISTRY                                         
 500 SUBTOPIC: CLOSE CONTACTS IN SAME ASYMMETRIC UNIT                     
 500                                                                      
 500 THE FOLLOWING ATOMS ARE IN CLOSE CONTACT.                            
 500                                                                      
 500  ATM1  RES C  SSEQI   ATM2  RES C  SSEQI           DISTANCE          
 500   O    HOH A   705     O    HOH A   727              0.48            
 500   OG   SER A    64     O1   LK7 A     0              2.19            
 500                                                                      
 500 REMARK: NULL                                                         
 500                                                                      
 500 GEOMETRY AND STEREOCHEMISTRY                                         
 500 SUBTOPIC: CLOSE CONTACTS                                             
 500                                                                      
 500 THE FOLLOWING ATOMS THAT ARE RELATED BY CRYSTALLOGRAPHIC             
 500 SYMMETRY ARE IN CLOSE CONTACT.  AN ATOM LOCATED WITHIN 0.15          
 500 ANGSTROMS OF A SYMMETRY RELATED ATOM IS ASSUMED TO BE ON A           
 500 SPECIAL POSITION AND IS, THEREFORE, LISTED IN REMARK 375             
 500 INSTEAD OF REMARK 500.  ATOMS WITH NON-BLANK ALTERNATE               
 500 LOCATION INDICATORS ARE NOT INCLUDED IN THE CALCULATIONS.            
 500                                                                      
 500 DISTANCE CUTOFF:                                                     
 500 2.2 ANGSTROMS FOR CONTACTS NOT INVOLVING HYDROGEN ATOMS              
 500 1.6 ANGSTROMS FOR CONTACTS INVOLVING HYDROGEN ATOMS                  
 500                                                                      
 500  ATM1  RES C  SSEQI   ATM2  RES C  SSEQI  SSYMOP   DISTANCE          
 500   O    HOH A   717     O    HOH A   728     3556     0.25            
 500   O    HOH A   603     O    HOH A   718     1554     0.32            
 500   O    HOH A   702     O    HOH A   721     3556     0.82            
 500   CD   PRO A     2     O    HOH A   631     3545     1.78            
 500   O    HOH A   476     O    HOH A   559     3556     1.84            
 500   OD2  ASP A   205     O    HOH A   721     3556     2.09            
 500   O    HOH A   591     O    HOH A   642     3546     2.12            
 500   O    HOH A   363     O    HOH A   634     3545     2.16            
 500                                                                      
 500 REMARK: NULL                                                         
 500                                                                      
 500 GEOMETRY AND STEREOCHEMISTRY                                         
 500 SUBTOPIC: COVALENT BOND ANGLES                                       
 500                                                                      
 500 THE STEREOCHEMICAL PARAMETERS OF THE FOLLOWING RESIDUES              
 500 HAVE VALUES WHICH DEVIATE FROM EXPECTED VALUES BY MORE               
 500 THAN 6*RMSD (M=MODEL NUMBER; RES=RESIDUE NAME; C=CHAIN               
 500 IDENTIFIER; SSEQ=SEQUENCE NUMBER; I=INSERTION CODE).                 
 500                                                                      
 500 STANDARD TABLE:                                                      
 500 FORMAT: (10X,I3,1X,A3,1X,A1,I4,A1,3(1X,A4,2X),12X,F5.1)              
 500                                                                      
 500 EXPECTED VALUES PROTEIN: ENGH AND HUBER, 1999                        
 500 EXPECTED VALUES NUCLEIC ACID: CLOWNEY ET AL 1996                     
 500                                                                      
 500  M RES CSSEQI ATM1   ATM2   ATM3                                     
 500    ARG A 177   NE  -  CZ  -  NH1 ANGL. DEV. =   4.5 DEGREES          
 500    ARG A 177   NE  -  CZ  -  NH2 ANGL. DEV. =  -4.4 DEGREES          
 500                                                                      
 500 REMARK: NULL                                                         
 500                                                                      
 500 GEOMETRY AND STEREOCHEMISTRY                                         
 500 SUBTOPIC: TORSION ANGLES                                             
 500                                                                      
 500 TORSION ANGLES OUTSIDE THE EXPECTED RAMACHANDRAN REGIONS:            
 500 (M=MODEL NUMBER; RES=RESIDUE NAME; C=CHAIN IDENTIFIER;               
 500 SSEQ=SEQUENCE NUMBER; I=INSERTION CODE).                             
 500                                                                      
 500 STANDARD TABLE:                                                      
 500 FORMAT:(10X,I3,1X,A3,1X,A1,I4,A1,4X,F7.2,3X,F7.2)                    
 500                                                                      
 500 EXPECTED VALUES: GJ KLEYWEGT AND TA JONES (1996). PHI/PSI-           
 500 CHOLOGY: RAMACHANDRAN REVISITED. STRUCTURE 4, 1395 - 1400            
 500                                                                      
 500  M RES CSSEQI        PSI       PHI                                   
 500    SER A 154      -70.15    -82.96                                   
 500    VAL A 178      -58.17   -122.86                                   
 500    ARG A 204      -85.80    -95.11                                   
 500    TYR A 221       18.33   -159.07                                   
 500    LYS A 315      129.18   -174.49                                   
 500    ASN A 341       43.35    -93.20                                   
 500                                                                      
 500 REMARK: NULL                                                         
 525                                                                      
 525 SOLVENT                                                              
 525                                                                      
 525 THE SOLVENT MOLECULES HAVE CHAIN IDENTIFIERS THAT                    
 525 INDICATE THE POLYMER CHAIN WITH WHICH THEY ARE MOST                  
 525 CLOSELY ASSOCIATED. THE REMARK LISTS ALL THE SOLVENT                 
 525 MOLECULES WHICH ARE MORE THAN 5A AWAY FROM THE                       
 525 NEAREST POLYMER CHAIN (M = MODEL NUMBER;                             
 525 RES=RESIDUE NAME; C=CHAIN IDENTIFIER; SSEQ=SEQUENCE                  
 525 NUMBER; I=INSERTION CODE):                                           
 525                                                                      
 525  M RES CSSEQI                                                        
 525    HOH A 365        DISTANCE =  5.05 ANGSTROMS                       
 525    HOH A 394        DISTANCE =  5.56 ANGSTROMS                       
 525    HOH A 397        DISTANCE =  5.09 ANGSTROMS                       
 525    HOH A 445        DISTANCE =  5.24 ANGSTROMS                       
 525    HOH A 452        DISTANCE =  5.14 ANGSTROMS                       
 525    HOH A 476        DISTANCE =  5.56 ANGSTROMS                       
 525    HOH A 496        DISTANCE =  5.53 ANGSTROMS                       
 525    HOH A 535        DISTANCE =  5.12 ANGSTROMS                       
 525    HOH A 578        DISTANCE =  5.55 ANGSTROMS                       
 525    HOH A 627        DISTANCE =  5.85 ANGSTROMS                       
 525    HOH A 660        DISTANCE =  6.23 ANGSTROMS                       
 615                                                                      
 615 ZERO OCCUPANCY ATOM                                                  
 615 THE FOLLOWING RESIDUES HAVE ATOMS MODELED WITH ZERO                  
 615 OCCUPANCY. THE LOCATION AND PROPERTIES OF THESE ATOMS                
 615 MAY NOT BE RELIABLE. (M=MODEL NUMBER; RES=RESIDUE NAME;              
 615 C=CHAIN IDENTIFIER; SSEQ=SEQUENCE NUMBER; I=INSERTION CODE):         
 615   M RES C SSEQI                                                      
 615     HOH A  716                                                       
 615     HOH A  720                                                       
 615     HOH A  726                                                       
 800                                                                      
 800 SITE                                                                 
 800 SITE_IDENTIFIER: AC1                                                 
 800 EVIDENCE_CODE: SOFTWARE                                              
 800 SITE_DESCRIPTION: BINDING SITE FOR RESIDUE LK7 A 0                   
 900                                                                      
 900 RELATED ENTRIES                                                      
 900 RELATED ID: 1XX2   RELATED DB: PDB                                   

>  <DBREF>
 2Q9M A    2   360  UNP    P05364   AMPC_ENTCL      22    380             

>  <SEQRES>
   1 A  359  PRO VAL SER GLU LYS GLN LEU ALA GLU VAL VAL ALA ASN          
   2 A  359  THR ILE THR PRO LEU MET LYS ALA GLN SER VAL PRO GLY          
   3 A  359  MET ALA VAL ALA VAL ILE TYR GLN GLY LYS PRO HIS TYR          
   4 A  359  TYR THR PHE GLY LYS ALA ASP ILE ALA ALA ASN LYS PRO          
   5 A  359  VAL THR PRO GLN THR LEU PHE GLU LEU GLY SER ILE SER          
   6 A  359  LYS THR PHE THR GLY VAL LEU GLY GLY ASP ALA ILE ALA          
   7 A  359  ARG GLY GLU ILE SER LEU ASP ASP ALA VAL THR ARG TYR          
   8 A  359  TRP PRO GLN LEU THR GLY LYS GLN TRP GLN GLY ILE ARG          
   9 A  359  MET LEU ASP LEU ALA THR TYR THR ALA GLY GLY LEU PRO          
  10 A  359  LEU GLN VAL PRO ASP GLU VAL THR ASP ASN ALA SER LEU          
  11 A  359  LEU ARG PHE TYR GLN ASN TRP GLN PRO GLN TRP LYS PRO          
  12 A  359  GLY THR THR ARG LEU TYR ALA ASN ALA SER ILE GLY LEU          
  13 A  359  PHE GLY ALA LEU ALA VAL LYS PRO SER GLY MET PRO TYR          
  14 A  359  GLU GLN ALA MET THR THR ARG VAL LEU LYS PRO LEU LYS          
  15 A  359  LEU ASP HIS THR TRP ILE ASN VAL PRO LYS ALA GLU GLU          
  16 A  359  ALA HIS TYR ALA TRP GLY TYR ARG ASP GLY LYS ALA VAL          
  17 A  359  ARG VAL SER PRO GLY MET LEU ASP ALA GLN ALA TYR GLY          
  18 A  359  VAL LYS THR ASN VAL GLN ASP MET ALA ASN TRP VAL MET          
  19 A  359  ALA ASN MET ALA PRO GLU ASN VAL ALA ASP ALA SER LEU          
  20 A  359  LYS GLN GLY ILE ALA LEU ALA GLN SER ARG TYR TRP ARG          
  21 A  359  ILE GLY SER MET TYR GLN GLY LEU GLY TRP GLU MET LEU          
  22 A  359  ASN TRP PRO VAL GLU ALA ASN THR VAL VAL GLU GLY SER          
  23 A  359  ASP SER LYS VAL ALA LEU ALA PRO LEU PRO VAL ALA GLU          
  24 A  359  VAL ASN PRO PRO ALA PRO PRO VAL LYS ALA SER TRP VAL          
  25 A  359  HIS LYS THR GLY SER THR GLY GLY PHE GLY SER TYR VAL          
  26 A  359  ALA PHE ILE PRO GLU LYS GLN ILE GLY ILE VAL MET LEU          
  27 A  359  ALA ASN THR SER TYR PRO ASN PRO ALA ARG VAL GLU ALA          
  28 A  359  ALA TYR HIS ILE LEU GLU ALA LEU                              

>  <HET>
 LK7  A   0      19                                                       

>  <HETNAM>
     LK7 (1R,4S,7AS)-1-(1-FORMYLPROP-1-EN-1-YL)-4-METHOXY-2,4,            
   2 LK7  5,6,7,7A-HEXAHYDRO-1H-ISOINDOLE-3-CARBOXYLIC ACID               

>  <FORMUL>
   2  LK7    C14 H19 N O4                                                 
   3  HOH   *368(H2 O)                                                    

>  <HELIX>
   1   1 SER A    4  SER A   24  1                                  21    
   2   2 ILE A   65  ARG A   80  1                                  16    
   3   3 ALA A   88  TRP A   93  5                                   6    
   4   4 GLY A   98  GLN A  102  5                                   5    
   5   5 ARG A  105  TYR A  112  1                                   8    
   6   6 ASP A  127  TRP A  138  1                                  12    
   7   7 ALA A  151  VAL A  163  1                                  13    
   8   8 LYS A  164  GLY A  167  5                                   4    
   9   9 PRO A  169  VAL A  178  1                                  10    
  10  10 PRO A  192  TYR A  199  5                                   8    
  11  11 LEU A  216  TYR A  221  1                                   6    
  12  12 ASN A  226  ALA A  239  1                                  14    
  13  13 PRO A  240  VAL A  243  5                                   4    
  14  14 ASP A  245  GLN A  256  1                                  12    
  15  15 GLU A  279  GLY A  286  1                                   8    
  16  16 ASP A  288  LEU A  293  1                                   6    
  17  17 PRO A  330  LYS A  332  5                                   3    
  18  18 PRO A  345  LEU A  360  1                                  16    

>  <SHEET>
   1   A10 LYS A  52  PRO A  53  0                                        
   2   A10 LYS A  37  ASP A  47 -1  N  ALA A  46   O  LYS A  52           
   3   A10 GLY A  27  TYR A  34 -1  N  VAL A  30   O  TYR A  41           
   4   A10 ILE A 334  ALA A 340 -1  O  LEU A 339   N  ALA A  29           
   5   A10 GLY A 323  PHE A 328 -1  N  TYR A 325   O  MET A 338           
   6   A10 SER A 311  SER A 318 -1  N  VAL A 313   O  PHE A 328           
   7   A10 GLU A 272  ASN A 275 -1  N  LEU A 274   O  TRP A 312           
   8   A10 MET A 265  GLN A 267 -1  N  TYR A 266   O  MET A 273           
   9   A10 ARG A 258  ILE A 262 -1  N  ILE A 262   O  MET A 265           
  10   A10 ALA A 299  ALA A 305 -1  O  ALA A 305   N  ARG A 258           
   1   B 2 PHE A  60  GLU A  61  0                                        
   2   B 2 LYS A 224  THR A 225 -1  O  THR A 225   N  PHE A  60           
   1   C 2 THR A 147  ARG A 148  0                                        
   2   C 2 LEU A 296  PRO A 297 -1  O  LEU A 296   N  ARG A 148           
   1   D 2 GLY A 202  TYR A 203  0                                        
   2   D 2 ALA A 208  VAL A 209 -1  O  VAL A 209   N  GLY A 202           

>  <LINK>
       C4  LK7 A   0                 OG  SER A  64     1555   1555  1.31  

>  <CISPEP>
   1 TRP A  276    PRO A  277          0         0.17                     
   2 ASN A  302    PRO A  303          0         0.00                     

>  <SITE>
   1 AC1 10 SER A  64  TYR A 150  ASN A 152  SER A 289                    
   2 AC1 10 LEU A 293  GLY A 317  SER A 318  HOH A 548                    
   3 AC1 10 HOH A 706  HOH A 714                                          

>  <ORIGX1>
      1.000000  0.000000  0.000000        0.00000                         

>  <ORIGX2>
      0.000000  1.000000  0.000000        0.00000                         

>  <ORIGX3>
      0.000000  0.000000  1.000000        0.00000                         

>  <SCALE1>
      0.013046  0.000000  0.000000        0.00000                         

>  <SCALE2>
      0.000000  0.014332  0.000000        0.00000                         

>  <SCALE3>
      0.000000  0.000000  0.015919        0.00000                         

>  <MASTER>
      347    0    1   18   16    0    3    6 3138    1   20   28          

$$$$
