start_structures/Ligand_Substrate/Ligand_Complex_Stripped/LN1_3D4F.pdb
 OpenBabel08222315203D

 63 70  0  0  1  0  0  0  0  0999 V2000
   33.5780   60.4230    8.4640 N   0  0  0  0  0  0  0  0  0  0  0  0
   33.1390   59.2590    7.6920 C   0  0  2  0  0  0  0  0  0  0  0  0
   33.5300   57.9120    8.2650 C   0  0  0  0  0  0  0  0  0  0  0  0
   32.9760   56.8840    7.8590 O   0  0  0  0  0  0  0  0  0  0  0  0
   33.6870   59.3360    6.2800 C   0  0  0  0  0  0  0  0  0  0  0  0
   33.8060   60.6890    5.8980 O   0  0  0  0  0  0  0  0  0  0  0  0
   34.4240   59.9260    3.8910 O   0  0  0  0  0  0  0  0  0  0  0  0
   34.1880   60.9080    4.6010 C   0  0  0  0  0  0  0  0  0  0  0  0
   34.4240   62.3760    4.2470 C   0  0  2  0  0  0  0  0  0  0  0  0
   34.0040   63.3770    5.0240 C   0  0  0  0  0  0  0  0  0  0  0  0
   34.1730   64.5290    4.3750 C   0  0  0  0  0  0  0  0  0  0  0  0
   33.9080   65.8500    4.7300 C   0  0  0  0  0  0  0  0  0  0  0  0
   34.1820   66.8670    3.8160 C   0  0  0  0  0  0  0  0  0  0  0  0
   34.7060   66.5490    2.5660 C   0  0  0  0  0  0  0  0  0  0  0  0
   34.9710   65.2310    2.2040 C   0  0  0  0  0  0  0  0  0  0  0  0
   34.7120   64.2040    3.1240 N   0  0  0  0  0  0  0  0  0  0  0  0
   34.9080   62.8220    3.0180 C   0  0  2  0  0  0  0  0  0  0  0  0
   35.3090   61.9670    2.0750 N   0  0  0  0  0  0  0  0  0  0  0  0
   35.4510   61.9470    2.1650 N   0  0  0  0  0  0  0  0  0  0  0  0
   36.6560   62.1020    1.5050 C   0  0  1  0  0  0  0  0  0  0  0  0
   36.5430   62.3120    1.2420 C   0  0  1  0  0  0  0  0  0  0  0  0
   37.7180   61.8140    2.5690 C   0  0  2  0  0  0  0  0  0  0  0  0
   37.9630   62.2920    1.8150 C   0  0  1  0  0  0  0  0  0  0  0  0
   37.5070   60.8790    3.3660 O   0  0  0  0  0  0  0  0  0  0  0  0
   38.6280   61.2300    1.7250 O   0  0  0  0  0  0  0  0  0  0  0  0
   38.7430   62.5290    2.5510 O   0  0  0  0  0  0  0  0  0  0  0  0
   38.3840   63.4160    2.1670 O   0  0  0  0  0  0  0  0  0  0  0  0
   36.8010   61.1750    0.2950 C   0  0  2  0  0  0  0  0  0  0  0  0
   36.5420   61.4190   -0.0010 C   0  0  2  0  0  0  0  0  0  0  0  0
   35.3660   61.4260   -0.8120 S   0  0  0  0  0  0  0  0  0  0  0  0
   36.4690   59.6590    0.4980 S   0  0  0  0  0  0  0  0  0  0  0  0
   35.6360   60.8110   -2.0800 O   0  0  0  0  0  0  0  0  0  0  0  0
   35.5460   58.9740   -0.3520 O   0  0  0  0  0  0  0  0  0  0  0  0
   35.3040   62.9140   -0.9980 O   0  0  0  0  0  0  0  0  0  0  0  0
   36.0500   59.5560    1.9350 O   0  0  0  0  0  0  0  0  0  0  0  0
   36.8410   59.7000    0.7080 C   0  0  0  0  0  0  0  0  0  0  0  0
   37.7820   61.6560   -0.8680 C   0  0  0  0  0  0  0  0  0  0  0  0
   38.0670   61.5610   -0.4520 C   0  0  2  0  0  0  0  0  0  0  0  0
   35.3230   61.8280   -0.8040 C   0  0  0  0  0  0  0  0  0  0  0  0
   39.1970   61.3510    0.4060 O   0  0  0  0  0  0  0  0  0  0  0  0
   35.5430   63.2380   -0.9600 O   0  0  0  0  0  0  0  0  0  0  0  0
   40.3320   61.5360   -0.3150 C   0  0  0  0  0  0  0  0  0  0  0  0
   35.4770   63.5530   -2.2790 C   0  0  0  0  0  0  0  0  0  0  0  0
   40.5070   62.5820   -0.9390 O   0  0  0  0  0  0  0  0  0  0  0  0
   36.3060   63.0750   -3.0510 O   0  0  0  0  0  0  0  0  0  0  0  0
   41.3860   60.4280   -0.3170 C   0  0  0  0  0  0  0  0  0  0  0  0
   34.3540   64.4710   -2.7640 C   0  0  0  0  0  0  0  0  0  0  0  0
   42.6520   60.9910   -0.9580 C   0  0  0  0  0  0  0  0  0  0  0  0
   33.6060   65.0580   -1.5630 C   0  0  0  0  0  0  0  0  0  0  0  0
   42.6960   61.1850   -2.3330 C   0  0  0  0  0  0  0  0  0  0  0  0
   32.9360   64.2340   -0.6630 C   0  0  0  0  0  0  0  0  0  0  0  0
   43.7320   61.3560   -0.1630 C   0  0  0  0  0  0  0  0  0  0  0  0
   33.5430   66.4390   -1.4100 C   0  0  0  0  0  0  0  0  0  0  0  0
   44.8610   61.9200   -0.7460 C   0  0  0  0  0  0  0  0  0  0  0  0
   32.8030   66.9960   -0.3730 C   0  0  0  0  0  0  0  0  0  0  0  0
   44.9090   62.1170   -2.1220 C   0  0  0  0  0  0  0  0  0  0  0  0
   32.1260   66.1710    0.5200 C   0  0  0  0  0  0  0  0  0  0  0  0
   46.0460   62.6200   -2.6750 O   0  0  0  0  0  0  0  0  0  0  0  0
   31.3790   66.7110    1.5200 O   0  0  0  0  0  0  0  0  0  0  0  0
   43.8250   61.7490   -2.9160 C   0  0  0  0  0  0  0  0  0  0  0  0
   32.1980   64.7900    0.3790 C   0  0  0  0  0  0  0  0  0  0  0  0
   43.8500   61.9090   -4.2670 O   0  0  0  0  0  0  0  0  0  0  0  0
   31.5670   63.9950    1.2840 O   0  0  0  0  0  0  0  0  0  0  0  0
  2  3  1  0  0  0  0
  2  1  1  1  0  0  0
  4  3  2  0  0  0  0
  5  2  1  0  0  0  0
  6  8  1  0  0  0  0
  6  5  1  0  0  0  0
  7  8  2  0  0  0  0
  9  8  1  6  0  0  0
  9 10  1  0  0  0  0
  9 17  1  0  0  0  0
 10 11  2  0  0  0  0
 11 12  1  0  0  0  0
 11 16  1  0  0  0  0
 12 13  2  0  0  0  0
 13 14  1  0  0  0  0
 14 15  2  0  0  0  0
 15 16  1  0  0  0  0
 16 17  1  0  0  0  0
 17 18  1  6  0  0  0
 17 19  1  0  0  0  0
 20 18  1  1  0  0  0
 20 22  1  0  0  0  0
 20 28  1  0  0  0  0
 21 19  1  1  0  0  0
 21 23  1  0  0  0  0
 21 29  1  0  0  0  0
 22 24  1  6  0  0  0
 22 26  1  0  0  0  0
 23 25  1  6  0  0  0
 23 27  1  0  0  0  0
 23 22  1  0  0  0  0
 27 26  1  0  0  0  0
 28 30  1  6  0  0  0
 28 36  1  0  0  0  0
 28 38  1  0  0  0  0
 29 31  1  0  0  0  0
 29 37  1  0  0  0  0
 29 39  1  6  0  0  0
 30 32  1  0  0  0  0
 30 34  1  0  0  0  0
 31 33  2  0  0  0  0
 31 35  2  0  0  0  0
 31 36  1  0  0  0  0
 37 38  1  0  0  0  0
 38 40  1  6  0  0  0
 39 41  1  0  0  0  0
 40 42  1  0  0  0  0
 41 43  1  0  0  0  0
 42 44  2  0  0  0  0
 42 46  1  0  0  0  0
 43 45  2  0  0  0  0
 43 47  1  0  0  0  0
 46 48  1  0  0  0  0
 47 49  1  0  0  0  0
 48 50  2  0  0  0  0
 48 52  1  0  0  0  0
 49 51  2  0  0  0  0
 49 53  1  0  0  0  0
 50 60  1  0  0  0  0
 51 61  1  0  0  0  0
 52 54  2  0  0  0  0
 53 55  2  0  0  0  0
 54 56  1  0  0  0  0
 55 57  1  0  0  0  0
 56 58  1  0  0  0  0
 56 60  2  0  0  0  0
 57 59  1  0  0  0  0
 57 61  2  0  0  0  0
 60 62  1  0  0  0  0
 61 63  1  0  0  0  0
M  END
>  <HEADER>
    HYDROLASE                               14-MAY-08   3D4F              

>  <TITLE>
    SHV-1 BETA-LACTAMASE COMPLEX WITH LN1-255                             

>  <COMPND>
    MOL_ID: 1;                                                            
   2 MOLECULE: BETA-LACTAMASE SHV-1;                                      
   3 CHAIN: A;                                                            
   4 SYNONYM: PIT-2;                                                      
   5 EC: 3.5.2.6;                                                         
   6 ENGINEERED: YES                                                      

>  <SOURCE>
    MOL_ID: 1;                                                            
   2 ORGANISM_SCIENTIFIC: KLEBSIELLA PNEUMONIAE;                          
   3 ORGANISM_TAXID: 573;                                                 
   4 GENE: BLA, SHV1;                                                     
   5 EXPRESSION_SYSTEM: ESCHERICHIA COLI;                                 
   6 EXPRESSION_SYSTEM_TAXID: 562;                                        
   7 EXPRESSION_SYSTEM_STRAIN: DH10B;                                     
   8 EXPRESSION_SYSTEM_VECTOR_TYPE: PLASMID;                              
   9 EXPRESSION_SYSTEM_PLASMID: PBC SK(-)                                 

>  <KEYWDS>
    BETA-LACTAMASE INHIBITOR, DRUG DESIGN, ANTIBIOTIC                     
   2 RESISTANCE, HYDROLASE, PLASMID                                       

>  <EXPDTA>
    X-RAY DIFFRACTION                                                     

>  <AUTHOR>
    P.PATTANAIK,C.R.BETHEL,A.M.HUJER,R.A.BONOMO,J.D.BUYNAK,               
   2 F.VAN DEN AKKER                                                      

>  <REVDAT>
   1   10-FEB-09 3D4F    0                                                

>  <JRNL>
      AUTH   P.PATTANAIK,C.R.BETHEL,A.M.HUJER,K.M.HUJER,                  
      AUTH 2 A.M.DISTLER,M.TARACILA,V.E.ANDERSON,T.R.FRITSCHE,            
      AUTH 3 R.N.JONES,S.R.PAGADALA,F.VAN DEN AKKER,J.D.BUYNAK,           
      AUTH 4 R.A.BONOMO                                                   
      TITL   STRATEGIC DESIGN OF AN EFFECTIVE {BETA}-LACTAMASE            
      TITL 2 INHIBITOR: LN-1-255, A 6-ALKYLIDENE-2'-SUBSTITUTED           
      TITL 3 PENICILLIN SULFONE                                           
      REF    J.BIOL.CHEM.                  V. 284   945 2009              
      REFN                   ISSN 0021-9258                               
      PMID   18955486                                                     
      DOI    10.1074/JBC.M806833200                                       

>  <REMARK>
   1                                                                      
   2                                                                      
   2 RESOLUTION.    1.55 ANGSTROMS.                                       
   3                                                                      
   3 REFINEMENT.                                                          
   3   PROGRAM     : CNS 1.2                                              
   3   AUTHORS     : BRUNGER,ADAMS,CLORE,DELANO,GROS,GROSSE-              
   3               : KUNSTLEVE,JIANG,KUSZEWSKI,NILGES, PANNU,             
   3               : READ,RICE,SIMONSON,WARREN                            
   3                                                                      
   3  REFINEMENT TARGET : ENGH & HUBER                                    
   3                                                                      
   3  DATA USED IN REFINEMENT.                                            
   3   RESOLUTION RANGE HIGH (ANGSTROMS) : 1.55                           
   3   RESOLUTION RANGE LOW  (ANGSTROMS) : 31.95                          
   3   DATA CUTOFF            (SIGMA(F)) : 0.000                          
   3   DATA CUTOFF HIGH         (ABS(F)) : 1336274.310                    
   3   DATA CUTOFF LOW          (ABS(F)) : 0.0000                         
   3   COMPLETENESS (WORKING+TEST)   (%) : 97.7                           
   3   NUMBER OF REFLECTIONS             : 33435                          
   3                                                                      
   3  FIT TO DATA USED IN REFINEMENT.                                     
   3   CROSS-VALIDATION METHOD          : THROUGHOUT                      
   3   FREE R VALUE TEST SET SELECTION  : RANDOM                          
   3   R VALUE            (WORKING SET) : 0.168                           
   3   FREE R VALUE                     : 0.197                           
   3   FREE R VALUE TEST SET SIZE   (%) : 5.000                           
   3   FREE R VALUE TEST SET COUNT      : 1659                            
   3   ESTIMATED ERROR OF FREE R VALUE  : 0.005                           
   3                                                                      
   3  FIT IN THE HIGHEST RESOLUTION BIN.                                  
   3   TOTAL NUMBER OF BINS USED           : 6                            
   3   BIN RESOLUTION RANGE HIGH       (A) : 1.55                         
   3   BIN RESOLUTION RANGE LOW        (A) : 1.65                         
   3   BIN COMPLETENESS (WORKING+TEST) (%) : 97.60                        
   3   REFLECTIONS IN BIN    (WORKING SET) : 5188                         
   3   BIN R VALUE           (WORKING SET) : 0.2470                       
   3   BIN FREE R VALUE                    : 0.2800                       
   3   BIN FREE R VALUE TEST SET SIZE  (%) : 5.10                         
   3   BIN FREE R VALUE TEST SET COUNT     : 278                          
   3   ESTIMATED ERROR OF BIN FREE R VALUE : 0.017                        
   3                                                                      
   3  NUMBER OF NON-HYDROGEN ATOMS USED IN REFINEMENT.                    
   3   PROTEIN ATOMS            : 2024                                    
   3   NUCLEIC ACID ATOMS       : 0                                       
   3   HETEROGEN ATOMS          : 101                                     
   3   SOLVENT ATOMS            : 248                                     
   3                                                                      
   3  B VALUES.                                                           
   3   FROM WILSON PLOT           (A**2) : 16.80                          
   3   MEAN B VALUE      (OVERALL, A**2) : 17.00                          
   3   OVERALL ANISOTROPIC B VALUE.                                       
   3    B11 (A**2) : 3.29000                                              
   3    B22 (A**2) : -4.05000                                             
   3    B33 (A**2) : 0.76000                                              
   3    B12 (A**2) : 0.00000                                              
   3    B13 (A**2) : 0.00000                                              
   3    B23 (A**2) : 0.00000                                              
   3                                                                      
   3  ESTIMATED COORDINATE ERROR.                                         
   3   ESD FROM LUZZATI PLOT        (A) : 0.15                            
   3   ESD FROM SIGMAA              (A) : 0.13                            
   3   LOW RESOLUTION CUTOFF        (A) : 5.00                            
   3                                                                      
   3  CROSS-VALIDATED ESTIMATED COORDINATE ERROR.                         
   3   ESD FROM C-V LUZZATI PLOT    (A) : 0.18                            
   3   ESD FROM C-V SIGMAA          (A) : 0.17                            
   3                                                                      
   3  RMS DEVIATIONS FROM IDEAL VALUES.                                   
   3   BOND LENGTHS                 (A) : 0.009                           
   3   BOND ANGLES            (DEGREES) : 1.60                            
   3   DIHEDRAL ANGLES        (DEGREES) : 22.20                           
   3   IMPROPER ANGLES        (DEGREES) : 1.08                            
   3                                                                      
   3  ISOTROPIC THERMAL MODEL : RESTRAINED                                
   3                                                                      
   3  ISOTROPIC THERMAL FACTOR RESTRAINTS.    RMS    SIGMA                
   3   MAIN-CHAIN BOND              (A**2) : NULL  ; NULL                 
   3   MAIN-CHAIN ANGLE             (A**2) : NULL  ; NULL                 
   3   SIDE-CHAIN BOND              (A**2) : NULL  ; NULL                 
   3   SIDE-CHAIN ANGLE             (A**2) : NULL  ; NULL                 
   3                                                                      
   3  BULK SOLVENT MODELING.                                              
   3   METHOD USED : FLAT MODEL                                           
   3   KSOL        : 0.35                                                 
   3   BSOL        : 53.59                                                
   3                                                                      
   3  NCS MODEL : NULL                                                    
   3                                                                      
   3  NCS RESTRAINTS.                         RMS   SIGMA/WEIGHT          
   3   GROUP  1  POSITIONAL            (A) : NULL  ; NULL                 
   3   GROUP  1  B-FACTOR           (A**2) : NULL  ; NULL                 
   3                                                                      
   3  PARAMETER FILE  1  : PROTEIN_REP.PARAM                              
   3  PARAMETER FILE  2  : WATER_REP.PARAM                                
   3  PARAMETER FILE  3  : LN1-24HRS_D5.PAR                               
   3  PARAMETER FILE  4  : NEW_CYMAL.PAR                                  
   3  PARAMETER FILE  5  : CIS167NEW.PAR                                  
   3  PARAMETER FILE  6  : NULL                                           
   3  TOPOLOGY FILE  1   : PROTEIN.TOP                                    
   3  TOPOLOGY FILE  2   : WATER.TOP                                      
   3  TOPOLOGY FILE  3   : NEW_LIGANDS_24HR_9.TOP                         
   3  TOPOLOGY FILE  4   : NULL                                           
   3  TOPOLOGY FILE  5   : NULL                                           
   3  TOPOLOGY FILE  6   : NULL                                           
   3                                                                      
   3  OTHER REFINEMENT REMARKS: BULK SOLVENT MODEL USED                   
   4                                                                      
   4 3D4F COMPLIES WITH FORMAT V. 3.20, 01-DEC-08                         
 100                                                                      
 100 THIS ENTRY HAS BEEN PROCESSED BY RCSB ON 27-MAY-08.                  
 100 THE RCSB ID CODE IS RCSB047578.                                      
 200                                                                      
 200 EXPERIMENTAL DETAILS                                                 
 200  EXPERIMENT TYPE                : X-RAY DIFFRACTION                  
 200  DATE OF DATA COLLECTION        : 25-MAR-06                          
 200  TEMPERATURE           (KELVIN) : 100                                
 200  PH                             : 7                                  
 200  NUMBER OF CRYSTALS USED        : 1                                  
 200                                                                      
 200  SYNCHROTRON              (Y/N) : Y                                  
 200  RADIATION SOURCE               : NSLS                               
 200  BEAMLINE                       : X29A                               
 200  X-RAY GENERATOR MODEL          : NULL                               
 200  MONOCHROMATIC OR LAUE    (M/L) : M                                  
 200  WAVELENGTH OR RANGE        (A) : 1.1                                
 200  MONOCHROMATOR                  : VERTICALLY FOCUSING MIRROR         
 200                                   AND A HORIZONTALLY FOCUSING        
 200                                   MONOCHROMATOR                      
 200  OPTICS                         : NULL                               
 200                                                                      
 200  DETECTOR TYPE                  : CCD                                
 200  DETECTOR MANUFACTURER          : ADSC QUANTUM 315                   
 200  INTENSITY-INTEGRATION SOFTWARE : HKL-2000                           
 200  DATA SCALING SOFTWARE          : HKL-2000                           
 200                                                                      
 200  NUMBER OF UNIQUE REFLECTIONS   : 33525                              
 200  RESOLUTION RANGE HIGH      (A) : 1.550                              
 200  RESOLUTION RANGE LOW       (A) : 50.000                             
 200  REJECTION CRITERIA  (SIGMA(I)) : -3.000                             
 200                                                                      
 200 OVERALL.                                                             
 200  COMPLETENESS FOR RANGE     (%) : 97.8                               
 200  DATA REDUNDANCY                : NULL                               
 200  R MERGE                    (I) : NULL                               
 200  R SYM                      (I) : 0.10100                            
 200  <I/SIGMA(I)> FOR THE DATA SET  : 20.8000                            
 200                                                                      
 200 IN THE HIGHEST RESOLUTION SHELL.                                     
 200  HIGHEST RESOLUTION SHELL, RANGE HIGH (A) : 1.55                     
 200  HIGHEST RESOLUTION SHELL, RANGE LOW  (A) : 1.61                     
 200  COMPLETENESS FOR SHELL     (%) : 96.3                               
 200  DATA REDUNDANCY IN SHELL       : NULL                               
 200  R MERGE FOR SHELL          (I) : 0.41000                            
 200  R SYM FOR SHELL            (I) : NULL                               
 200  <I/SIGMA(I)> FOR SHELL         : 2.100                              
 200                                                                      
 200 DIFFRACTION PROTOCOL: SINGLE WAVELENGTH                              
 200 METHOD USED TO DETERMINE THE STRUCTURE: MOLECULAR REPLACEMENT        
 200 SOFTWARE USED: CNS                                                   
 200 STARTING MODEL: SHV-1 WT                                             
 200                                                                      
 200 REMARK: NULL                                                         
 280                                                                      
 280 CRYSTAL                                                              
 280 SOLVENT CONTENT, VS   (%): 33.11                                     
 280 MATTHEWS COEFFICIENT, VM (ANGSTROMS**3/DA): 1.84                     
 280                                                                      
 280 CRYSTALLIZATION CONDITIONS: 30% PEG6000, 0.1M HEPES PH7. 0.56MM      
 280  CYMAL-6, VAPOR DIFFUSION, SITTING DROP, TEMPERATURE 298K            
 290                                                                      
 290 CRYSTALLOGRAPHIC SYMMETRY                                            
 290 SYMMETRY OPERATORS FOR SPACE GROUP: P 21 21 21                       
 290                                                                      
 290      SYMOP   SYMMETRY                                                
 290     NNNMMM   OPERATOR                                                
 290       1555   X,Y,Z                                                   
 290       2555   -X+1/2,-Y,Z+1/2                                         
 290       3555   -X,Y+1/2,-Z+1/2                                         
 290       4555   X+1/2,-Y+1/2,-Z                                         
 290                                                                      
 290     WHERE NNN -> OPERATOR NUMBER                                     
 290           MMM -> TRANSLATION VECTOR                                  
 290                                                                      
 290 CRYSTALLOGRAPHIC SYMMETRY TRANSFORMATIONS                            
 290 THE FOLLOWING TRANSFORMATIONS OPERATE ON THE ATOM/HETATM             
 290 RECORDS IN THIS ENTRY TO PRODUCE CRYSTALLOGRAPHICALLY                
 290 RELATED MOLECULES.                                                   
 290   SMTRY1   1  1.000000  0.000000  0.000000        0.00000            
 290   SMTRY2   1  0.000000  1.000000  0.000000        0.00000            
 290   SMTRY3   1  0.000000  0.000000  1.000000        0.00000            
 290   SMTRY1   2 -1.000000  0.000000  0.000000       24.80550            
 290   SMTRY2   2  0.000000 -1.000000  0.000000        0.00000            
 290   SMTRY3   2  0.000000  0.000000  1.000000       41.75100            
 290   SMTRY1   3 -1.000000  0.000000  0.000000        0.00000            
 290   SMTRY2   3  0.000000  1.000000  0.000000       27.75150            
 290   SMTRY3   3  0.000000  0.000000 -1.000000       41.75100            
 290   SMTRY1   4  1.000000  0.000000  0.000000       24.80550            
 290   SMTRY2   4  0.000000 -1.000000  0.000000       27.75150            
 290   SMTRY3   4  0.000000  0.000000 -1.000000        0.00000            
 290                                                                      
 290 REMARK: NULL                                                         
 300                                                                      
 300 BIOMOLECULE: 1                                                       
 300 SEE REMARK 350 FOR THE AUTHOR PROVIDED AND/OR PROGRAM                
 300 GENERATED ASSEMBLY INFORMATION FOR THE STRUCTURE IN                  
 300 THIS ENTRY. THE REMARK MAY ALSO PROVIDE INFORMATION ON               
 300 BURIED SURFACE AREA.                                                 
 300 REMARK: MONOMER                                                      
 350                                                                      
 350 COORDINATES FOR A COMPLETE MULTIMER REPRESENTING THE KNOWN           
 350 BIOLOGICALLY SIGNIFICANT OLIGOMERIZATION STATE OF THE                
 350 MOLECULE CAN BE GENERATED BY APPLYING BIOMT TRANSFORMATIONS          
 350 GIVEN BELOW.  BOTH NON-CRYSTALLOGRAPHIC AND                          
 350 CRYSTALLOGRAPHIC OPERATIONS ARE GIVEN.                               
 350                                                                      
 350 BIOMOLECULE: 1                                                       
 350 AUTHOR DETERMINED BIOLOGICAL UNIT: MONOMERIC                         
 350 SOFTWARE DETERMINED QUATERNARY STRUCTURE: MONOMERIC                  
 350 SOFTWARE USED: PISA                                                  
 350 APPLY THE FOLLOWING TO CHAINS: A                                     
 350   BIOMT1   1  1.000000  0.000000  0.000000        0.00000            
 350   BIOMT2   1  0.000000  1.000000  0.000000        0.00000            
 350   BIOMT3   1  0.000000  0.000000  1.000000        0.00000            
 465                                                                      
 465 MISSING RESIDUES                                                     
 465 THE FOLLOWING RESIDUES WERE NOT LOCATED IN THE                       
 465 EXPERIMENT. (M=MODEL NUMBER; RES=RESIDUE NAME; C=CHAIN               
 465 IDENTIFIER; SSSEQ=SEQUENCE NUMBER; I=INSERTION CODE.)                
 465                                                                      
 465   M RES C SSSEQI                                                     
 465     MET A     5                                                      
 465     ARG A     6                                                      
 465     TYR A     7                                                      
 465     ILE A     8                                                      
 465     ARG A     9                                                      
 465     LEU A    10                                                      
 465     CYS A    11                                                      
 465     ILE A    12                                                      
 465     ILE A    13                                                      
 465     SER A    14                                                      
 465     LEU A    15                                                      
 465     LEU A    16                                                      
 465     ALA A    17                                                      
 465     THR A    18                                                      
 465     LEU A    19                                                      
 465     PRO A    20                                                      
 465     LEU A    21                                                      
 465     ALA A    22                                                      
 465     VAL A    23                                                      
 465     HIS A    24                                                      
 465     ALA A    25                                                      
 500                                                                      
 500 GEOMETRY AND STEREOCHEMISTRY                                         
 500 SUBTOPIC: TORSION ANGLES                                             
 500                                                                      
 500 TORSION ANGLES OUTSIDE THE EXPECTED RAMACHANDRAN REGIONS:            
 500 (M=MODEL NUMBER; RES=RESIDUE NAME; C=CHAIN IDENTIFIER;               
 500 SSEQ=SEQUENCE NUMBER; I=INSERTION CODE).                             
 500                                                                      
 500 STANDARD TABLE:                                                      
 500 FORMAT:(10X,I3,1X,A3,1X,A1,I4,A1,4X,F7.2,3X,F7.2)                    
 500                                                                      
 500 EXPECTED VALUES: GJ KLEYWEGT AND TA JONES (1996). PHI/PSI-           
 500 CHOLOGY: RAMACHANDRAN REVISITED. STRUCTURE 4, 1395 - 1400            
 500                                                                      
 500  M RES CSSEQI        PSI       PHI                                   
 500    MET A  69     -144.64     56.05                                   
 500    TYR A 105       90.43     71.55                                   
 500    VAL A 216      -83.03   -103.53                                   
 500                                                                      
 500 REMARK: NULL                                                         
 610                                                                      
 610 MISSING HETEROATOM                                                   
 610 THE FOLLOWING RESIDUES HAVE MISSING ATOMS (M=MODEL NUMBER;           
 610 RES=RESIDUE NAME; C=CHAIN IDENTIFIER; SSEQ=SEQUENCE NUMBER;          
 610 I=INSERTION CODE):                                                   
 610   M RES C SSEQI                                                      
 610     MA4 A  401                                                       
 800                                                                      
 800 SITE                                                                 
 800 SITE_IDENTIFIER: AC1                                                 
 800 EVIDENCE_CODE: SOFTWARE                                              
 800 SITE_DESCRIPTION: BINDING SITE FOR RESIDUE MA4 A 400                 
 800 SITE_IDENTIFIER: AC2                                                 
 800 EVIDENCE_CODE: SOFTWARE                                              
 800 SITE_DESCRIPTION: BINDING SITE FOR RESIDUE MA4 A 401                 
 800 SITE_IDENTIFIER: AC3                                                 
 800 EVIDENCE_CODE: SOFTWARE                                              
 800 SITE_DESCRIPTION: BINDING SITE FOR RESIDUE LN1 A 601                 
 900                                                                      
 900 RELATED ENTRIES                                                      
 900 RELATED ID: 1SHV   RELATED DB: PDB                                   
 900 SHV-1 BETA-LACTAMASE STRUCTURE                                       
 900 RELATED ID: 1GA0   RELATED DB: PDB                                   
 900 INHIBITION OF CLASS C BETA-LACTAMASES: STRUCTURE OF A                
 900 REACTION INTERMEDIATE WITH A CEPHEM SULFONE                          

>  <DBREF>
 3D4F A    5   292  UNP    P0AD64   BLA1_KLEPN       1    286             

>  <SEQRES>
   1 A  286  MET ARG TYR ILE ARG LEU CYS ILE ILE SER LEU LEU ALA          
   2 A  286  THR LEU PRO LEU ALA VAL HIS ALA SER PRO GLN PRO LEU          
   3 A  286  GLU GLN ILE LYS LEU SER GLU SER GLN LEU SER GLY ARG          
   4 A  286  VAL GLY MET ILE GLU MET ASP LEU ALA SER GLY ARG THR          
   5 A  286  LEU THR ALA TRP ARG ALA ASP GLU ARG PHE PRO MET MET          
   6 A  286  SER THR PHE LYS VAL VAL LEU CYS GLY ALA VAL LEU ALA          
   7 A  286  ARG VAL ASP ALA GLY ASP GLU GLN LEU GLU ARG LYS ILE          
   8 A  286  HIS TYR ARG GLN GLN ASP LEU VAL ASP TYR SER PRO VAL          
   9 A  286  SER GLU LYS HIS LEU ALA ASP GLY MET THR VAL GLY GLU          
  10 A  286  LEU CYS ALA ALA ALA ILE THR MET SER ASP ASN SER ALA          
  11 A  286  ALA ASN LEU LEU LEU ALA THR VAL GLY GLY PRO ALA GLY          
  12 A  286  LEU THR ALA PHE LEU ARG GLN ILE GLY ASP ASN VAL THR          
  13 A  286  ARG LEU ASP ARG TRP GLU THR GLU LEU ASN GLU ALA LEU          
  14 A  286  PRO GLY ASP ALA ARG ASP THR THR THR PRO ALA SER MET          
  15 A  286  ALA ALA THR LEU ARG LYS LEU LEU THR SER GLN ARG LEU          
  16 A  286  SER ALA ARG SER GLN ARG GLN LEU LEU GLN TRP MET VAL          
  17 A  286  ASP ASP ARG VAL ALA GLY PRO LEU ILE ARG SER VAL LEU          
  18 A  286  PRO ALA GLY TRP PHE ILE ALA ASP LYS THR GLY ALA GLY          
  19 A  286  GLU ARG GLY ALA ARG GLY ILE VAL ALA LEU LEU GLY PRO          
  20 A  286  ASN ASN LYS ALA GLU ARG ILE VAL VAL ILE TYR LEU ARG          
  21 A  286  ASP THR PRO ALA SER MET ALA GLU ARG ASN GLN GLN ILE          
  22 A  286  ALA GLY ILE GLY ALA ALA LEU ILE GLU HIS TRP GLN ARG          

>  <HET>
 MA4  A 400      35                                                       
 MA4  A 401       9                                                       
 LN1  A 601      57                                                       

>  <HETNAM>
     MA4 CYCLOHEXYL-HEXYL-BETA-D-MALTOSIDE                                
     LN1 (3R)-4-{[(3,4-DIHYDROXYPHENYL)ACETYL]OXY}-N-(2-                  
   2 LN1  FORMYLINDOLIZIN-3-YL)-3-SULFINO-D-VALINE                        

>  <FORMUL>
   2  MA4    2(C24 H44 O11)                                               
   4  LN1    C22 H22 N2 O9 S                                              
   5  HOH   *248(H2 O)                                                    

>  <HELIX>
   1   1 GLN A   28  SER A   41  1                                  14    
   2   2 THR A   71  ALA A   86  1                                  16    
   3   3 ARG A   98  LEU A  102  5                                   5    
   4   4 VAL A  108  HIS A  112  5                                   5    
   5   5 VAL A  119  SER A  130  1                                  12    
   6   6 ASP A  131  VAL A  142  1                                  12    
   7   7 GLY A  143  ILE A  155  1                                  13    
   8   8 THR A  167  GLU A  171  5                                   5    
   9   9 THR A  182  SER A  196  1                                  15    
  10  10 SER A  200  ASP A  213  1                                  14    
  11  11 VAL A  216  LEU A  225  1                                  10    
  12  12 SER A  271  HIS A  289  1                                  19    

>  <SHEET>
   1   A 5 THR A  56  TRP A  60  0                                        
   2   A 5 ARG A  43  ASP A  50 -1  N  MET A  46   O  TRP A  60           
   3   A 5 ARG A 259  ARG A 266 -1  O  ILE A 260   N  MET A  49           
   4   A 5 ARG A 244  GLY A 251 -1  N  ALA A 248   O  VAL A 261           
   5   A 5 PHE A 230  ALA A 237 -1  N  PHE A 230   O  GLY A 251           
   1   B 2 PHE A  66  PRO A  67  0                                        
   2   B 2 THR A 180  THR A 181 -1  O  THR A 181   N  PHE A  66           
   1   C 2 LYS A  94  ILE A  95  0                                        
   2   C 2 MET A 117  THR A 118 -1  O  MET A 117   N  ILE A  95           

>  <SSBOND>
   1 CYS A   77    CYS A  123                          1555   1555  2.06  

>  <LINK>
       OG  SER A  70                 C7  LN1 A 601     1555   1555  1.37  

>  <CISPEP>
   1 GLU A  166    THR A  167          0         0.48                     

>  <SITE>
   1 AC1 14 ARG A  93  ILE A  95  HIS A  96  ARG A  98                    
   2 AC1 14 PRO A 226  ALA A 280  ALA A 284  GLU A 288                    
   3 AC1 14 HOH A 614  HOH A 658  HOH A 686  HOH A 767                    
   4 AC1 14 HOH A 797  HOH A 798                                          
   1 AC2  2 ARG A 244  ILE A 279                                          
   1 AC3 14 SER A  70  TYR A 105  SER A 130  ASN A 132                    
   2 AC3 14 LEU A 220  LYS A 234  THR A 235  GLY A 236                    
   3 AC3 14 ALA A 237  ARG A 244  ASN A 276  HOH A 690                    
   4 AC3 14 HOH A 736  HOH A 794                                          

>  <ORIGX1>
      1.000000  0.000000  0.000000        0.00000                         

>  <ORIGX2>
      0.000000  1.000000  0.000000        0.00000                         

>  <ORIGX3>
      0.000000  0.000000  1.000000        0.00000                         

>  <SCALE1>
      0.020157  0.000000  0.000000        0.00000                         

>  <SCALE2>
      0.000000  0.018017  0.000000        0.00000                         

>  <SCALE3>
      0.000000  0.000000  0.011976        0.00000                         

>  <MASTER>
      297    0    3   12    9    0    9    6 2373    1  104   22          

$$$$
