start_structures/Ligand_Substrate/Ligand_Complex_Stripped/LP0_6PWL.pdb
 OpenBabel08222315203D

 32 32  0  0  1  0  0  0  0  0999 V2000
   14.4290  -10.3810   37.9170 N   0  0  0  0  0  0  0  0  0  0  0  0
   14.0500  -11.8220   37.8970 C   0  0  2  0  0  0  0  0  0  0  0  0
   12.5330  -12.0140   37.9560 C   0  0  0  0  0  0  0  0  0  0  0  0
   12.0750  -13.0990   37.6240 O   0  0  0  0  0  0  0  0  0  0  0  0
   14.7500  -12.5750   38.9850 C   0  0  0  0  0  0  0  0  0  0  0  0
   16.1150  -12.7090   38.6430 O   0  0  0  0  0  0  0  0  0  0  0  0
   15.6390  -11.8970   43.0300 O   0  0  0  0  0  0  0  0  0  0  0  0
   16.8820  -12.3870   42.3330 P   0  0  0  0  0  0  0  0  0  0  0  0
   17.4410  -13.5190   43.1670 O   0  0  0  0  0  0  0  0  0  0  0  0
   17.9560  -11.3300   42.1940 O   0  0  0  0  0  0  0  0  0  0  0  0
   16.5420  -12.9070   40.8610 O   0  0  0  0  0  0  0  0  0  0  0  0
   16.9620  -12.1940   39.6770 B   0  0  2  0  0  0  0  0  0  0  0  0
   16.7980  -10.6790   39.7240 O   0  0  0  0  0  0  0  0  0  0  0  0
   18.4750  -12.5840   39.2700 C   0  0  0  0  0  0  0  0  0  0  0  0
   19.3910  -11.4940   39.5630 N   0  0  0  0  0  0  0  0  0  0  0  0
   20.4170  -11.1830   38.7720 C   0  0  0  0  0  0  0  0  0  0  0  0
   20.7240  -11.7580   37.7300 O   0  0  0  0  0  0  0  0  0  0  0  0
   21.2630  -10.0670   39.1750 C   0  0  0  0  0  0  0  0  0  0  0  0
   21.8830  -10.1280   40.2800 N   0  0  0  0  0  0  0  0  0  0  0  0
   21.7480  -11.1320   41.0420 O   0  0  0  0  0  0  0  0  0  0  0  0
   21.8110  -11.0510   42.4710 C   0  0  0  0  0  0  0  0  0  0  0  0
   20.7180  -10.1230   42.9520 C   0  0  0  0  0  0  0  0  0  0  0  0
   19.9350  -10.4840   43.8630 O   0  0  0  0  0  0  0  0  0  0  0  0
   20.6400   -8.9970   42.4160 O   0  0  0  0  0  0  0  0  0  0  0  0
   21.6090  -12.4530   43.0550 C   0  0  0  0  0  0  0  0  0  0  0  0
   23.1640  -10.4760   42.8920 C   0  0  0  0  0  0  0  0  0  0  0  0
   21.4110   -8.9400   38.2400 C   0  0  0  0  0  0  0  0  0  0  0  0
   20.9470   -8.9540   36.9300 N   0  0  0  0  0  0  0  0  0  0  0  0
   21.2550   -7.7880   36.3080 C   0  0  0  0  0  0  0  0  0  0  0  0
   20.8980   -7.4840   34.9640 N   0  0  0  0  0  0  0  0  0  0  0  0
   22.1110   -6.6510   37.2730 S   0  0  0  0  0  0  0  0  0  0  0  0
   22.0860   -7.7570   38.5930 C   0  0  0  0  0  0  0  0  0  0  0  0
  2  1  1  1  0  0  0
  2  3  1  0  0  0  0
  2  5  1  0  0  0  0
  4  3  2  0  0  0  0
  6  5  1  0  0  0  0
  6 12  1  0  0  0  0
  8  7  1  0  0  0  0
  8  9  1  0  0  0  0
 10  8  2  0  0  0  0
 11  8  1  0  0  0  0
 12 13  1  1  0  0  0
 12 11  1  0  0  0  0
 14 15  1  0  0  0  0
 14 12  1  0  0  0  0
 16 18  1  0  0  0  0
 16 15  1  0  0  0  0
 17 16  2  0  0  0  0
 18 19  2  0  0  0  0
 19 20  1  0  0  0  0
 20 21  1  0  0  0  0
 21 26  1  0  0  0  0
 21 22  1  0  0  0  0
 21 25  1  0  0  0  0
 22 23  1  0  0  0  0
 24 22  2  0  0  0  0
 27 32  2  0  0  0  0
 27 18  1  0  0  0  0
 28 27  1  0  0  0  0
 29 28  2  0  0  0  0
 29 31  1  0  0  0  0
 30 29  1  0  0  0  0
 31 32  1  0  0  0  0
M  END
>  <HEADER>
    HYDROLASE                               23-JUL-19   6PWL              

>  <TITLE>
    ADC-7 IN COMPLEX WITH BORONIC ACID TRANSITION STATE INHIBITOR LP06    

>  <COMPND>
    MOL_ID: 1;                                                            
   2 MOLECULE: BETA-LACTAMASE;                                            
   3 CHAIN: A, B, C, D;                                                   
   4 EC: 3.5.2.6;                                                         
   5 ENGINEERED: YES                                                      

>  <SOURCE>
    MOL_ID: 1;                                                            
   2 ORGANISM_SCIENTIFIC: ACINETOBACTER BAUMANNII;                        
   3 ORGANISM_TAXID: 470;                                                 
   4 EXPRESSION_SYSTEM: ESCHERICHIA COLI BL21(DE3);                       
   5 EXPRESSION_SYSTEM_TAXID: 469008;                                     
   6 EXPRESSION_SYSTEM_VECTOR_TYPE: PLASMID;                              
   7 EXPRESSION_SYSTEM_PLASMID: PET28A                                    

>  <KEYWDS>
    INHIBITOR, BETA-LACTAMASE, BATSI, ADC-7., HYDROLASE                   

>  <EXPDTA>
    X-RAY DIFFRACTION                                                     

>  <AUTHOR>
    B.C.CURTIS,R.A.POWERS,B.J.WALLAR                                      

>  <REVDAT>
   2   02-DEC-20 6PWL    1       JRNL                                     
   1   21-OCT-20 6PWL    0                                                

>  <JRNL>
      AUTH   B.N.CURTIS,K.A.SMOLEN,S.J.BARLOW,E.CASELLI,F.PRATI,          
      AUTH 2 M.A.TARACILA,R.A.BONOMO,B.J.WALLAR,R.A.POWERS                
      TITL   STRUCTURAL INSIGHTS INTO INHIBITION OF THE                   
      TITL 2 ACINETOBACTER-DERIVED CEPHALOSPORINASE ADC-7 BY CEFTAZIDIME  
      TITL 3 AND ITS BORONIC ACID TRANSITION STATE ANALOG.                
      REF    ANTIMICROB.AGENTS CHEMOTHER.  V.  64       2020              
      REFN                   ESSN 1098-6596                               
      PMID   32988830                                                     
      DOI    10.1128/AAC.01183-20                                         

>  <REMARK>
   2                                                                      
   2 RESOLUTION.    1.67 ANGSTROMS.                                       
   3                                                                      
   3 REFINEMENT.                                                          
   3   PROGRAM     : REFMAC 5.8.0253                                      
   3   AUTHORS     : MURSHUDOV,SKUBAK,LEBEDEV,PANNU,STEINER,              
   3               : NICHOLLS,WINN,LONG,VAGIN                             
   3                                                                      
   3    REFINEMENT TARGET : NULL                                          
   3                                                                      
   3  DATA USED IN REFINEMENT.                                            
   3   RESOLUTION RANGE HIGH (ANGSTROMS) : 1.67                           
   3   RESOLUTION RANGE LOW  (ANGSTROMS) : 96.77                          
   3   DATA CUTOFF            (SIGMA(F)) : 0.000                          
   3   COMPLETENESS FOR RANGE        (%) : 69.9                           
   3   NUMBER OF REFLECTIONS             : 104531                         
   3                                                                      
   3  FIT TO DATA USED IN REFINEMENT.                                     
   3   CROSS-VALIDATION METHOD          : THROUGHOUT                      
   3   FREE R VALUE TEST SET SELECTION  : RANDOM                          
   3   R VALUE     (WORKING + TEST SET) : 0.224                           
   3   R VALUE            (WORKING SET) : 0.222                           
   3   FREE R VALUE                     : 0.263                           
   3   FREE R VALUE TEST SET SIZE   (%) : 5.000                           
   3   FREE R VALUE TEST SET COUNT      : 5463                            
   3                                                                      
   3  FIT IN THE HIGHEST RESOLUTION BIN.                                  
   3   TOTAL NUMBER OF BINS USED           : 20                           
   3   BIN RESOLUTION RANGE HIGH       (A) : 1.67                         
   3   BIN RESOLUTION RANGE LOW        (A) : 1.71                         
   3   REFLECTION IN BIN     (WORKING SET) : 241                          
   3   BIN COMPLETENESS (WORKING+TEST) (%) : 2.20                         
   3   BIN R VALUE           (WORKING SET) : 0.2760                       
   3   BIN FREE R VALUE SET COUNT          : 13                           
   3   BIN FREE R VALUE                    : 0.3420                       
   3                                                                      
   3  NUMBER OF NON-HYDROGEN ATOMS USED IN REFINEMENT.                    
   3   PROTEIN ATOMS            : 11035                                   
   3   NUCLEIC ACID ATOMS       : 0                                       
   3   HETEROGEN ATOMS          : 109                                     
   3   SOLVENT ATOMS            : 545                                     
   3                                                                      
   3  B VALUES.                                                           
   3   FROM WILSON PLOT           (A**2) : NULL                           
   3   MEAN B VALUE      (OVERALL, A**2) : 34.15                          
   3   OVERALL ANISOTROPIC B VALUE.                                       
   3    B11 (A**2) : -0.19000                                             
   3    B22 (A**2) : -0.08000                                             
   3    B33 (A**2) : 0.15000                                              
   3    B12 (A**2) : 0.00000                                              
   3    B13 (A**2) : 0.07000                                              
   3    B23 (A**2) : 0.00000                                              
   3                                                                      
   3  ESTIMATED OVERALL COORDINATE ERROR.                                 
   3   ESU BASED ON R VALUE                            (A): 0.193         
   3   ESU BASED ON FREE R VALUE                       (A): 0.169         
   3   ESU BASED ON MAXIMUM LIKELIHOOD                 (A): 0.118         
   3   ESU FOR B VALUES BASED ON MAXIMUM LIKELIHOOD (A**2): 3.650         
   3                                                                      
   3 CORRELATION COEFFICIENTS.                                            
   3   CORRELATION COEFFICIENT FO-FC      : 0.948                         
   3   CORRELATION COEFFICIENT FO-FC FREE : 0.927                         
   3                                                                      
   3  RMS DEVIATIONS FROM IDEAL VALUES        COUNT    RMS    WEIGHT      
   3   BOND LENGTHS REFINED ATOMS        (A): 11512 ; 0.005 ; 0.013       
   3   BOND LENGTHS OTHERS               (A): 10324 ; 0.001 ; 0.017       
   3   BOND ANGLES REFINED ATOMS   (DEGREES): 15708 ; 1.407 ; 1.667       
   3   BOND ANGLES OTHERS          (DEGREES): 24084 ; 1.253 ; 1.578       
   3   TORSION ANGLES, PERIOD 1    (DEGREES):  1438 ; 7.021 ; 5.000       
   3   TORSION ANGLES, PERIOD 2    (DEGREES):   523 ;39.942 ;25.029       
   3   TORSION ANGLES, PERIOD 3    (DEGREES):  1856 ;14.459 ;15.000       
   3   TORSION ANGLES, PERIOD 4    (DEGREES):    23 ;17.643 ;15.000       
   3   CHIRAL-CENTER RESTRAINTS       (A**3):  1513 ; 0.066 ; 0.200       
   3   GENERAL PLANES REFINED ATOMS      (A): 12917 ; 0.006 ; 0.020       
   3   GENERAL PLANES OTHERS             (A):  2192 ; 0.001 ; 0.020       
   3   NON-BONDED CONTACTS REFINED ATOMS (A):  NULL ;  NULL ;  NULL       
   3   NON-BONDED CONTACTS OTHERS        (A):  NULL ;  NULL ;  NULL       
   3   NON-BONDED TORSION REFINED ATOMS  (A):  NULL ;  NULL ;  NULL       
   3   NON-BONDED TORSION OTHERS         (A):  NULL ;  NULL ;  NULL       
   3   H-BOND (X...Y) REFINED ATOMS      (A):  NULL ;  NULL ;  NULL       
   3   H-BOND (X...Y) OTHERS             (A):  NULL ;  NULL ;  NULL       
   3   POTENTIAL METAL-ION REFINED ATOMS (A):  NULL ;  NULL ;  NULL       
   3   POTENTIAL METAL-ION OTHERS        (A):  NULL ;  NULL ;  NULL       
   3   SYMMETRY VDW REFINED ATOMS        (A):  NULL ;  NULL ;  NULL       
   3   SYMMETRY VDW OTHERS               (A):  NULL ;  NULL ;  NULL       
   3   SYMMETRY H-BOND REFINED ATOMS     (A):  NULL ;  NULL ;  NULL       
   3   SYMMETRY H-BOND OTHERS            (A):  NULL ;  NULL ;  NULL       
   3   SYMMETRY METAL-ION REFINED ATOMS  (A):  NULL ;  NULL ;  NULL       
   3   SYMMETRY METAL-ION OTHERS         (A):  NULL ;  NULL ;  NULL       
   3                                                                      
   3  ISOTROPIC THERMAL FACTOR RESTRAINTS.     COUNT   RMS    WEIGHT      
   3   MAIN-CHAIN BOND REFINED ATOMS  (A**2):  NULL ;  NULL ;  NULL       
   3   MAIN-CHAIN BOND OTHER ATOMS    (A**2):  NULL ;  NULL ;  NULL       
   3   MAIN-CHAIN ANGLE REFINED ATOMS (A**2):  NULL ;  NULL ;  NULL       
   3   MAIN-CHAIN ANGLE OTHER ATOMS   (A**2):  NULL ;  NULL ;  NULL       
   3   SIDE-CHAIN BOND REFINED ATOMS  (A**2):  NULL ;  NULL ;  NULL       
   3   SIDE-CHAIN BOND OTHER ATOMS    (A**2):  NULL ;  NULL ;  NULL       
   3   SIDE-CHAIN ANGLE REFINED ATOMS (A**2):  NULL ;  NULL ;  NULL       
   3   SIDE-CHAIN ANGLE OTHER ATOMS   (A**2):  NULL ;  NULL ;  NULL       
   3   LONG RANGE B REFINED ATOMS     (A**2):  NULL ;  NULL ;  NULL       
   3   LONG RANGE B OTHER ATOMS       (A**2):  NULL ;  NULL ;  NULL       
   3                                                                      
   3 ANISOTROPIC THERMAL FACTOR RESTRAINTS.    COUNT   RMS   WEIGHT       
   3   RIGID-BOND RESTRAINTS          (A**2):  NULL ;  NULL ;  NULL       
   3   SPHERICITY; FREE ATOMS         (A**2):  NULL ;  NULL ;  NULL       
   3   SPHERICITY; BONDED ATOMS       (A**2):  NULL ;  NULL ;  NULL       
   3                                                                      
   3  NCS RESTRAINTS STATISTICS                                           
   3   NCS TYPE: LOCAL                                                    
   3   NUMBER OF DIFFERENT NCS PAIRS  : 6                                 
   3  GROUP  CHAIN1    RANGE     CHAIN2     RANGE    COUNT RMS  WEIGHT    
   3    1     B     4    358       A     4    358   11878 0.080 0.050     
   3    2     B     4    356       C     4    356   11469 0.080 0.050     
   3    3     B     4    358       D     4    358   11401 0.070 0.050     
   3    4     A     3    356       C     3    356   11709 0.070 0.050     
   3    5     A     3    358       D     3    358   11596 0.070 0.050     
   3    6     C     3    357       D     3    357   11325 0.060 0.050     
   3                                                                      
   3  TLS DETAILS                                                         
   3   NUMBER OF TLS GROUPS  : NULL                                       
   3                                                                      
   3  BULK SOLVENT MODELLING.                                             
   3   METHOD USED : NULL                                                 
   3   PARAMETERS FOR MASK CALCULATION                                    
   3   VDW PROBE RADIUS   : 1.00                                          
   3   ION PROBE RADIUS   : 0.70                                          
   3   SHRINKAGE RADIUS   : 0.70                                          
   3                                                                      
   3  OTHER REFINEMENT REMARKS: HYDROGENS HAVE BEEN ADDED IN THE RIDING   
   3  POSITIONS U VALUES : REFINED INDIVIDUALLY                           
   4                                                                      
   4 6PWL COMPLIES WITH FORMAT V. 3.30, 13-JUL-11                         
 100                                                                      
 100 THIS ENTRY HAS BEEN PROCESSED BY RCSB ON 25-JUL-19.                  
 100 THE DEPOSITION ID IS D_1000243196.                                   
 200                                                                      
 200 EXPERIMENTAL DETAILS                                                 
 200  EXPERIMENT TYPE                : X-RAY DIFFRACTION                  
 200  DATE OF DATA COLLECTION        : 10-JUL-18                          
 200  TEMPERATURE           (KELVIN) : 100                                
 200  PH                             : 5.0                                
 200  NUMBER OF CRYSTALS USED        : 1                                  
 200                                                                      
 200  SYNCHROTRON              (Y/N) : Y                                  
 200  RADIATION SOURCE               : APS                                
 200  BEAMLINE                       : 21-ID-D                            
 200  X-RAY GENERATOR MODEL          : NULL                               
 200  MONOCHROMATIC OR LAUE    (M/L) : M                                  
 200  WAVELENGTH OR RANGE        (A) : 0.97851                            
 200  MONOCHROMATOR                  : NULL                               
 200  OPTICS                         : NULL                               
 200                                                                      
 200  DETECTOR TYPE                  : CCD                                
 200  DETECTOR MANUFACTURER          : MARMOSAIC 300 MM CCD               
 200  INTENSITY-INTEGRATION SOFTWARE : XDS                                
 200  DATA SCALING SOFTWARE          : XSCALE                             
 200                                                                      
 200  NUMBER OF UNIQUE REFLECTIONS   : 109985                             
 200  RESOLUTION RANGE HIGH      (A) : 1.670                              
 200  RESOLUTION RANGE LOW       (A) : 96.770                             
 200  REJECTION CRITERIA  (SIGMA(I)) : NULL                               
 200                                                                      
 200 OVERALL.                                                             
 200  COMPLETENESS FOR RANGE     (%) : 80.8                               
 200  DATA REDUNDANCY                : 3.900                              
 200  R MERGE                    (I) : 0.06100                            
 200  R SYM                      (I) : NULL                               
 200  <I/SIGMA(I)> FOR THE DATA SET  : 11.4000                            
 200                                                                      
 200 IN THE HIGHEST RESOLUTION SHELL.                                     
 200  HIGHEST RESOLUTION SHELL, RANGE HIGH (A) : 1.68                     
 200  HIGHEST RESOLUTION SHELL, RANGE LOW  (A) : 1.86                     
 200  COMPLETENESS FOR SHELL     (%) : 67.7                               
 200  DATA REDUNDANCY IN SHELL       : 3.90                               
 200  R MERGE FOR SHELL          (I) : 0.74100                            
 200  R SYM FOR SHELL            (I) : NULL                               
 200  <I/SIGMA(I)> FOR SHELL         : NULL                               
 200                                                                      
 200 DIFFRACTION PROTOCOL: SINGLE WAVELENGTH                              
 200 METHOD USED TO DETERMINE THE STRUCTURE: MOLECULAR REPLACEMENT        
 200 SOFTWARE USED: PHASER                                                
 200 STARTING MODEL: 4U0T                                                 
 200                                                                      
 200 REMARK: NULL                                                         
 280                                                                      
 280 CRYSTAL                                                              
 280 SOLVENT CONTENT, VS   (%): 41.81                                     
 280 MATTHEWS COEFFICIENT, VM (ANGSTROMS**3/DA): 2.11                     
 280                                                                      
 280 CRYSTALLIZATION CONDITIONS: ADC-7 (3.5MG/ML) IN 25% W/V              
 280  POLYETHYLENE GLYCOL (PEG) 1500, 0.1 M SUCCINATE/ PHOSPHATE/         
 280  GLYCINE, PH 5.0, VAPOR DIFFUSION, HANGING DROP, TEMPERATURE 298K    
 290                                                                      
 290 CRYSTALLOGRAPHIC SYMMETRY                                            
 290 SYMMETRY OPERATORS FOR SPACE GROUP: P 1 21 1                         
 290                                                                      
 290      SYMOP   SYMMETRY                                                
 290     NNNMMM   OPERATOR                                                
 290       1555   X,Y,Z                                                   
 290       2555   -X,Y+1/2,-Z                                             
 290                                                                      
 290     WHERE NNN -> OPERATOR NUMBER                                     
 290           MMM -> TRANSLATION VECTOR                                  
 290                                                                      
 290 CRYSTALLOGRAPHIC SYMMETRY TRANSFORMATIONS                            
 290 THE FOLLOWING TRANSFORMATIONS OPERATE ON THE ATOM/HETATM             
 290 RECORDS IN THIS ENTRY TO PRODUCE CRYSTALLOGRAPHICALLY                
 290 RELATED MOLECULES.                                                   
 290   SMTRY1   1  1.000000  0.000000  0.000000        0.00000            
 290   SMTRY2   1  0.000000  1.000000  0.000000        0.00000            
 290   SMTRY3   1  0.000000  0.000000  1.000000        0.00000            
 290   SMTRY1   2 -1.000000  0.000000  0.000000        0.00000            
 290   SMTRY2   2  0.000000  1.000000  0.000000       40.63950            
 290   SMTRY3   2  0.000000  0.000000 -1.000000        0.00000            
 290                                                                      
 290 REMARK: NULL                                                         
 300                                                                      
 300 BIOMOLECULE: 1, 2, 3, 4                                              
 300 SEE REMARK 350 FOR THE AUTHOR PROVIDED AND/OR PROGRAM                
 300 GENERATED ASSEMBLY INFORMATION FOR THE STRUCTURE IN                  
 300 THIS ENTRY. THE REMARK MAY ALSO PROVIDE INFORMATION ON               
 300 BURIED SURFACE AREA.                                                 
 350                                                                      
 350 COORDINATES FOR A COMPLETE MULTIMER REPRESENTING THE KNOWN           
 350 BIOLOGICALLY SIGNIFICANT OLIGOMERIZATION STATE OF THE                
 350 MOLECULE CAN BE GENERATED BY APPLYING BIOMT TRANSFORMATIONS          
 350 GIVEN BELOW.  BOTH NON-CRYSTALLOGRAPHIC AND                          
 350 CRYSTALLOGRAPHIC OPERATIONS ARE GIVEN.                               
 350                                                                      
 350 BIOMOLECULE: 1                                                       
 350 AUTHOR DETERMINED BIOLOGICAL UNIT: MONOMERIC                         
 350 SOFTWARE DETERMINED QUATERNARY STRUCTURE: MONOMERIC                  
 350 SOFTWARE USED: PISA                                                  
 350 APPLY THE FOLLOWING TO CHAINS: A                                     
 350   BIOMT1   1  1.000000  0.000000  0.000000        0.00000            
 350   BIOMT2   1  0.000000  1.000000  0.000000        0.00000            
 350   BIOMT3   1  0.000000  0.000000  1.000000        0.00000            
 350                                                                      
 350 BIOMOLECULE: 2                                                       
 350 AUTHOR DETERMINED BIOLOGICAL UNIT: MONOMERIC                         
 350 SOFTWARE DETERMINED QUATERNARY STRUCTURE: MONOMERIC                  
 350 SOFTWARE USED: PISA                                                  
 350 APPLY THE FOLLOWING TO CHAINS: B                                     
 350   BIOMT1   1  1.000000  0.000000  0.000000        0.00000            
 350   BIOMT2   1  0.000000  1.000000  0.000000        0.00000            
 350   BIOMT3   1  0.000000  0.000000  1.000000        0.00000            
 350                                                                      
 350 BIOMOLECULE: 3                                                       
 350 AUTHOR DETERMINED BIOLOGICAL UNIT: MONOMERIC                         
 350 SOFTWARE DETERMINED QUATERNARY STRUCTURE: MONOMERIC                  
 350 SOFTWARE USED: PISA                                                  
 350 APPLY THE FOLLOWING TO CHAINS: C                                     
 350   BIOMT1   1  1.000000  0.000000  0.000000        0.00000            
 350   BIOMT2   1  0.000000  1.000000  0.000000        0.00000            
 350   BIOMT3   1  0.000000  0.000000  1.000000        0.00000            
 350                                                                      
 350 BIOMOLECULE: 4                                                       
 350 AUTHOR DETERMINED BIOLOGICAL UNIT: MONOMERIC                         
 350 SOFTWARE DETERMINED QUATERNARY STRUCTURE: MONOMERIC                  
 350 SOFTWARE USED: PISA                                                  
 350 APPLY THE FOLLOWING TO CHAINS: D                                     
 350   BIOMT1   1  1.000000  0.000000  0.000000        0.00000            
 350   BIOMT2   1  0.000000  1.000000  0.000000        0.00000            
 350   BIOMT3   1  0.000000  0.000000  1.000000        0.00000            
 465                                                                      
 465 MISSING RESIDUES                                                     
 465 THE FOLLOWING RESIDUES WERE NOT LOCATED IN THE                       
 465 EXPERIMENT. (M=MODEL NUMBER; RES=RESIDUE NAME; C=CHAIN               
 465 IDENTIFIER; SSSEQ=SEQUENCE NUMBER; I=INSERTION CODE.)                
 465                                                                      
 465   M RES C SSSEQI                                                     
 465     MET A    -1                                                      
 465     ASP A     0                                                      
 465     ASN A     1                                                      
 465     THR A     2                                                      
 465     PRO A     3                                                      
 465     MET B    -1                                                      
 465     ASP B     0                                                      
 465     ASN B     1                                                      
 465     MET C    -1                                                      
 465     ASP C     0                                                      
 465     ASN C     1                                                      
 465     THR C     2                                                      
 465     LYS C   358                                                      
 465     LYS C   359                                                      
 465     MET D    -1                                                      
 465     ASP D     0                                                      
 465     ASN D     1                                                      
 465     THR D     2                                                      
 465     LYS D   303                                                      
 465     GLU D   304                                                      
 465     LYS D   359                                                      
 470                                                                      
 470 MISSING ATOM                                                         
 470 THE FOLLOWING RESIDUES HAVE MISSING ATOMS (M=MODEL NUMBER;           
 470 RES=RESIDUE NAME; C=CHAIN IDENTIFIER; SSEQ=SEQUENCE NUMBER;          
 470 I=INSERTION CODE):                                                   
 470   M RES CSSEQI  ATOMS                                                
 470     LYS A   4    CG   CD   CE   NZ                                   
 470     ASP A   5    CG   OD1  OD2                                       
 470     LYS A  94    CG   CD   CE   NZ                                   
 470     GLN A 129    CG   CD   OE1  NE2                                  
 470     LYS A 139    CG   CD   CE   NZ                                   
 470     LYS A 193    CG   CD   CE   NZ                                   
 470     GLN A 242    CG   CD   OE1  NE2                                  
 470     GLN A 257    CG   CD   OE1  NE2                                  
 470     GLU A 289    CG   CD   OE1  OE2                                  
 470     LYS A 328    CG   CD   CE   NZ                                   
 470     LYS A 359    CG   CD   CE   NZ                                   
 470     GLU B  21    CG   CD   OE1  OE2                                  
 470     LYS B 193    CG   CD   CE   NZ                                   
 470     LYS B 359    CG   CD   CE   NZ                                   
 470     GLN C   6    CG   CD   OE1  NE2                                  
 470     GLU C   7    CG   CD   OE1  OE2                                  
 470     GLN C  14    CG   CD   OE1  NE2                                  
 470     LYS C  37    CG   CD   CE   NZ                                   
 470     TYR C  39    CG   CD1  CD2  CE1  CE2  CZ   OH                    
 470     LYS C  82    CG   CD   CE   NZ                                   
 470     LYS C  91    CG   CD   CE   NZ                                   
 470     LYS C  94    CG   CD   CE   NZ                                   
 470     LYS C  97    CG   CD   CE   NZ                                   
 470     GLU C 124    CG   CD   OE1  OE2                                  
 470     GLN C 129    CG   CD   OE1  NE2                                  
 470     LEU C 132    CG   CD1  CD2                                       
 470     LYS C 136    CG   CD   CE   NZ                                   
 470     LYS C 139    CG   CD   CE   NZ                                   
 470     GLU C 146    CG   CD   OE1  OE2                                  
 470     TYR C 147    CG   CD1  CD2  CE1  CE2  CZ   OH                    
 470     VAL C 161    CG1  CG2                                            
 470     ASN C 167    CG   OD1  ND2                                       
 470     LYS C 185    CG   CD   CE   NZ                                   
 470     LYS C 193    CG   CD   CE   NZ                                   
 470     LYS C 243    CG   CD   CE   NZ                                   
 470     ARG C 250    CG   CD   NE   CZ   NH1  NH2                        
 470     GLN C 257    CG   CD   OE1  NE2                                  
 470     ASP C 285    CG   OD1  OD2                                       
 470     GLU C 289    CG   CD   OE1  OE2                                  
 470     ILE C 291    CG1  CG2  CD1                                       
 470     LYS C 294    CG   CD   CE   NZ                                   
 470     LYS C 297    CG   CD   CE   NZ                                   
 470     VAL C 298    CG1  CG2                                            
 470     GLU C 304    CG   CD   OE1  OE2                                  
 470     SER C 306    OG                                                  
 470     LYS C 328    CG   CD   CE   NZ                                   
 470     LYS D   4    CG   CD   CE   NZ                                   
 470     ASP D   5    CG   OD1  OD2                                       
 470     GLU D   7    CG   CD   OE1  OE2                                  
 470     LYS D  10    CG   CD   CE   NZ                                   
 470     GLN D  14    CG   CD   OE1  NE2                                  
 470     GLU D  21    CG   CD   OE1  OE2                                  
 470     ASN D  36    CG   OD1  ND2                                       
 470     LYS D  37    CG   CD   CE   NZ                                   
 470     LYS D  78    CG   CD   CE   NZ                                   
 470     LYS D  80    CG   CD   CE   NZ                                   
 470     ILE D  83    CG1  CG2  CD1                                       
 470     LYS D  91    CG   CD   CE   NZ                                   
 470     GLN D 103    CG   CD   OE1  NE2                                  
 470     GLU D 124    CG   CD   OE1  OE2                                  
 470     LYS D 136    CG   CD   CE   NZ                                   
 470     LYS D 176    CG   CD   CE   NZ                                   
 470     LYS D 185    CG   CD   CE   NZ                                   
 470     LYS D 193    CG   CD   CE   NZ                                   
 470     LYS D 243    CG   CD   CE   NZ                                   
 470     THR D 246    OG1  CG2                                            
 470     ASP D 247    CG   OD1  OD2                                       
 470     ILE D 248    CG1  CG2  CD1                                       
 470     GLN D 249    CG   CD   OE1  NE2                                  
 470     ARG D 250    CG   CD   NE   CZ   NH1  NH2                        
 470     GLU D 289    CG   CD   OE1  OE2                                  
 470     ILE D 301    CG1  CG2  CD1                                       
 470     SER D 306    OG                                                  
 470     LYS D 308    CG   CD   CE   NZ                                   
 470     LYS D 328    CG   CD   CE   NZ                                   
 470     GLU D 344    CG   CD   OE1  OE2                                  
 470     ILE D 357    CG1  CG2  CD1                                       
 470     LYS D 358    CG   CD   CE   NZ                                   
 500                                                                      
 500 GEOMETRY AND STEREOCHEMISTRY                                         
 500 SUBTOPIC: TORSION ANGLES                                             
 500                                                                      
 500 TORSION ANGLES OUTSIDE THE EXPECTED RAMACHANDRAN REGIONS:            
 500 (M=MODEL NUMBER; RES=RESIDUE NAME; C=CHAIN IDENTIFIER;               
 500 SSEQ=SEQUENCE NUMBER; I=INSERTION CODE).                             
 500                                                                      
 500 STANDARD TABLE:                                                      
 500 FORMAT:(10X,I3,1X,A3,1X,A1,I4,A1,4X,F7.2,3X,F7.2)                    
 500                                                                      
 500 EXPECTED VALUES: GJ KLEYWEGT AND TA JONES (1996). PHI/PSI-           
 500 CHOLOGY: RAMACHANDRAN REVISITED. STRUCTURE 4, 1395 - 1400            
 500                                                                      
 500  M RES CSSEQI        PSI       PHI                                   
 500    TYR A 112       34.57     70.91                                   
 500    ASN A 116       52.74   -158.59                                   
 500    GLN A 126      -53.06   -140.31                                   
 500    LYS A 141      -75.38   -131.49                                   
 500    TYR A 222       21.28   -160.25                                   
 500    ASN A 263     -115.23     48.25                                   
 500    SER A 302      -65.96    -98.68                                   
 500    TYR B 112       34.09     71.98                                   
 500    ASN B 116       53.54   -159.64                                   
 500    GLN B 126      -53.54   -139.75                                   
 500    LYS B 141      -76.84   -133.16                                   
 500    TYR B 222       21.17   -160.41                                   
 500    ASN B 263     -117.41     51.71                                   
 500    TYR C 112       34.80     72.07                                   
 500    ASN C 116       52.23   -159.92                                   
 500    GLN C 126      -55.22   -139.90                                   
 500    LYS C 141      -76.59   -132.22                                   
 500    TYR C 222       20.94   -159.55                                   
 500    ASN C 263     -119.92     52.07                                   
 500    LYS D   4      -53.15     89.76                                   
 500    ASN D  35     -109.48     60.67                                   
 500    TYR D 112       34.81     71.93                                   
 500    ASN D 116       52.55   -158.80                                   
 500    GLN D 126      -53.92   -139.21                                   
 500    LYS D 141      -77.24   -133.31                                   
 500    TYR D 222       21.16   -160.08                                   
 500    ASN D 263     -120.01     54.78                                   
 500    ASN D 355       51.45    -95.90                                   
 500    ALA D 356      -26.70   -163.50                                   
 500                                                                      
 500 REMARK: NULL                                                         
 800                                                                      
 800 SITE                                                                 
 800 SITE_IDENTIFIER: AC1                                                 
 800 EVIDENCE_CODE: SOFTWARE                                              
 800 SITE_DESCRIPTION: binding site for residue LP0 A 401                 
 800                                                                      
 800 SITE_IDENTIFIER: AC2                                                 
 800 EVIDENCE_CODE: SOFTWARE                                              
 800 SITE_DESCRIPTION: binding site for residue GLY C 402                 
 800                                                                      
 800 SITE_IDENTIFIER: AC3                                                 
 800 EVIDENCE_CODE: SOFTWARE                                              
 800 SITE_DESCRIPTION: binding site for Di-peptide LP0 B 401 and SER B    
 800  64                                                                  
 800                                                                      
 800 SITE_IDENTIFIER: AC4                                                 
 800 EVIDENCE_CODE: SOFTWARE                                              
 800 SITE_DESCRIPTION: binding site for Di-peptide LP0 C 401 and SER C    
 800  64                                                                  
 800                                                                      
 800 SITE_IDENTIFIER: AC5                                                 
 800 EVIDENCE_CODE: SOFTWARE                                              
 800 SITE_DESCRIPTION: binding site for Di-peptide LP0 D 401 and SER D    
 800  64                                                                  

>  <DBREF>
 6PWL A    0   359  UNP    Q6DRA1   Q6DRA1_ACIBA    24    383             
 6PWL B    0   359  UNP    Q6DRA1   Q6DRA1_ACIBA    24    383             
 6PWL C    0   359  UNP    Q6DRA1   Q6DRA1_ACIBA    24    383             
 6PWL D    0   359  UNP    Q6DRA1   Q6DRA1_ACIBA    24    383             

>  <SEQADV>
 6PWL MET A   -1  UNP  Q6DRA1              EXPRESSION TAG                 
 6PWL MET B   -1  UNP  Q6DRA1              EXPRESSION TAG                 
 6PWL MET C   -1  UNP  Q6DRA1              EXPRESSION TAG                 
 6PWL MET D   -1  UNP  Q6DRA1              EXPRESSION TAG                 

>  <SEQRES>
   1 A  361  MET ASP ASN THR PRO LYS ASP GLN GLU ILE LYS LYS LEU          
   2 A  361  VAL ASP GLN ASN PHE LYS PRO LEU LEU GLU LYS TYR ASP          
   3 A  361  VAL PRO GLY MET ALA VAL GLY VAL ILE GLN ASN ASN LYS          
   4 A  361  LYS TYR GLU MET TYR TYR GLY LEU GLN SER VAL GLN ASP          
   5 A  361  LYS LYS ALA VAL ASN SER ASN THR ILE PHE GLU LEU GLY          
   6 A  361  SER VAL SER LYS LEU PHE THR ALA THR ALA GLY GLY TYR          
   7 A  361  ALA LYS ASN LYS GLY LYS ILE SER PHE ASP ASP THR PRO          
   8 A  361  GLY LYS TYR TRP LYS GLU LEU LYS ASN THR PRO ILE ASP          
   9 A  361  GLN VAL ASN LEU LEU GLN LEU ALA THR TYR THR SER GLY          
  10 A  361  ASN LEU ALA LEU GLN PHE PRO ASP GLU VAL GLN THR ASP          
  11 A  361  GLN GLN VAL LEU THR PHE PHE LYS ASP TRP LYS PRO LYS          
  12 A  361  ASN PRO ILE GLY GLU TYR ARG GLN TYR SER ASN PRO SER          
  13 A  361  ILE GLY LEU PHE GLY LYS VAL VAL ALA LEU SER MET ASN          
  14 A  361  LYS PRO PHE ASP GLN VAL LEU GLU LYS THR ILE PHE PRO          
  15 A  361  ALA LEU GLY LEU LYS HIS SER TYR VAL ASN VAL PRO LYS          
  16 A  361  THR GLN MET GLN ASN TYR ALA PHE GLY TYR ASN GLN GLU          
  17 A  361  ASN GLN PRO ILE ARG VAL ASN PRO GLY PRO LEU ASP ALA          
  18 A  361  PRO ALA TYR GLY VAL LYS SER THR LEU PRO ASP MET LEU          
  19 A  361  SER PHE ILE HIS ALA ASN LEU ASN PRO GLN LYS TYR PRO          
  20 A  361  THR ASP ILE GLN ARG ALA ILE ASN GLU THR HIS GLN GLY          
  21 A  361  ARG TYR GLN VAL ASN THR MET TYR GLN ALA LEU GLY TRP          
  22 A  361  GLU GLU PHE SER TYR PRO ALA THR LEU GLN THR LEU LEU          
  23 A  361  ASP SER ASN SER GLU GLN ILE VAL MET LYS PRO ASN LYS          
  24 A  361  VAL THR ALA ILE SER LYS GLU PRO SER VAL LYS MET TYR          
  25 A  361  HIS LYS THR GLY SER THR SER GLY PHE GLY THR TYR VAL          
  26 A  361  VAL PHE ILE PRO LYS GLU ASN ILE GLY LEU VAL MET LEU          
  27 A  361  THR ASN LYS ARG ILE PRO ASN GLU GLU ARG ILE LYS ALA          
  28 A  361  ALA TYR VAL VAL LEU ASN ALA ILE LYS LYS                      
   1 B  361  MET ASP ASN THR PRO LYS ASP GLN GLU ILE LYS LYS LEU          
   2 B  361  VAL ASP GLN ASN PHE LYS PRO LEU LEU GLU LYS TYR ASP          
   3 B  361  VAL PRO GLY MET ALA VAL GLY VAL ILE GLN ASN ASN LYS          
   4 B  361  LYS TYR GLU MET TYR TYR GLY LEU GLN SER VAL GLN ASP          
   5 B  361  LYS LYS ALA VAL ASN SER ASN THR ILE PHE GLU LEU GLY          
   6 B  361  SER VAL SER LYS LEU PHE THR ALA THR ALA GLY GLY TYR          
   7 B  361  ALA LYS ASN LYS GLY LYS ILE SER PHE ASP ASP THR PRO          
   8 B  361  GLY LYS TYR TRP LYS GLU LEU LYS ASN THR PRO ILE ASP          
   9 B  361  GLN VAL ASN LEU LEU GLN LEU ALA THR TYR THR SER GLY          
  10 B  361  ASN LEU ALA LEU GLN PHE PRO ASP GLU VAL GLN THR ASP          
  11 B  361  GLN GLN VAL LEU THR PHE PHE LYS ASP TRP LYS PRO LYS          
  12 B  361  ASN PRO ILE GLY GLU TYR ARG GLN TYR SER ASN PRO SER          
  13 B  361  ILE GLY LEU PHE GLY LYS VAL VAL ALA LEU SER MET ASN          
  14 B  361  LYS PRO PHE ASP GLN VAL LEU GLU LYS THR ILE PHE PRO          
  15 B  361  ALA LEU GLY LEU LYS HIS SER TYR VAL ASN VAL PRO LYS          
  16 B  361  THR GLN MET GLN ASN TYR ALA PHE GLY TYR ASN GLN GLU          
  17 B  361  ASN GLN PRO ILE ARG VAL ASN PRO GLY PRO LEU ASP ALA          
  18 B  361  PRO ALA TYR GLY VAL LYS SER THR LEU PRO ASP MET LEU          
  19 B  361  SER PHE ILE HIS ALA ASN LEU ASN PRO GLN LYS TYR PRO          
  20 B  361  THR ASP ILE GLN ARG ALA ILE ASN GLU THR HIS GLN GLY          
  21 B  361  ARG TYR GLN VAL ASN THR MET TYR GLN ALA LEU GLY TRP          
  22 B  361  GLU GLU PHE SER TYR PRO ALA THR LEU GLN THR LEU LEU          
  23 B  361  ASP SER ASN SER GLU GLN ILE VAL MET LYS PRO ASN LYS          
  24 B  361  VAL THR ALA ILE SER LYS GLU PRO SER VAL LYS MET TYR          
  25 B  361  HIS LYS THR GLY SER THR SER GLY PHE GLY THR TYR VAL          
  26 B  361  VAL PHE ILE PRO LYS GLU ASN ILE GLY LEU VAL MET LEU          
  27 B  361  THR ASN LYS ARG ILE PRO ASN GLU GLU ARG ILE LYS ALA          
  28 B  361  ALA TYR VAL VAL LEU ASN ALA ILE LYS LYS                      
   1 C  361  MET ASP ASN THR PRO LYS ASP GLN GLU ILE LYS LYS LEU          
   2 C  361  VAL ASP GLN ASN PHE LYS PRO LEU LEU GLU LYS TYR ASP          
   3 C  361  VAL PRO GLY MET ALA VAL GLY VAL ILE GLN ASN ASN LYS          
   4 C  361  LYS TYR GLU MET TYR TYR GLY LEU GLN SER VAL GLN ASP          
   5 C  361  LYS LYS ALA VAL ASN SER ASN THR ILE PHE GLU LEU GLY          
   6 C  361  SER VAL SER LYS LEU PHE THR ALA THR ALA GLY GLY TYR          
   7 C  361  ALA LYS ASN LYS GLY LYS ILE SER PHE ASP ASP THR PRO          
   8 C  361  GLY LYS TYR TRP LYS GLU LEU LYS ASN THR PRO ILE ASP          
   9 C  361  GLN VAL ASN LEU LEU GLN LEU ALA THR TYR THR SER GLY          
  10 C  361  ASN LEU ALA LEU GLN PHE PRO ASP GLU VAL GLN THR ASP          
  11 C  361  GLN GLN VAL LEU THR PHE PHE LYS ASP TRP LYS PRO LYS          
  12 C  361  ASN PRO ILE GLY GLU TYR ARG GLN TYR SER ASN PRO SER          
  13 C  361  ILE GLY LEU PHE GLY LYS VAL VAL ALA LEU SER MET ASN          
  14 C  361  LYS PRO PHE ASP GLN VAL LEU GLU LYS THR ILE PHE PRO          
  15 C  361  ALA LEU GLY LEU LYS HIS SER TYR VAL ASN VAL PRO LYS          
  16 C  361  THR GLN MET GLN ASN TYR ALA PHE GLY TYR ASN GLN GLU          
  17 C  361  ASN GLN PRO ILE ARG VAL ASN PRO GLY PRO LEU ASP ALA          
  18 C  361  PRO ALA TYR GLY VAL LYS SER THR LEU PRO ASP MET LEU          
  19 C  361  SER PHE ILE HIS ALA ASN LEU ASN PRO GLN LYS TYR PRO          
  20 C  361  THR ASP ILE GLN ARG ALA ILE ASN GLU THR HIS GLN GLY          
  21 C  361  ARG TYR GLN VAL ASN THR MET TYR GLN ALA LEU GLY TRP          
  22 C  361  GLU GLU PHE SER TYR PRO ALA THR LEU GLN THR LEU LEU          
  23 C  361  ASP SER ASN SER GLU GLN ILE VAL MET LYS PRO ASN LYS          
  24 C  361  VAL THR ALA ILE SER LYS GLU PRO SER VAL LYS MET TYR          
  25 C  361  HIS LYS THR GLY SER THR SER GLY PHE GLY THR TYR VAL          
  26 C  361  VAL PHE ILE PRO LYS GLU ASN ILE GLY LEU VAL MET LEU          
  27 C  361  THR ASN LYS ARG ILE PRO ASN GLU GLU ARG ILE LYS ALA          
  28 C  361  ALA TYR VAL VAL LEU ASN ALA ILE LYS LYS                      
   1 D  361  MET ASP ASN THR PRO LYS ASP GLN GLU ILE LYS LYS LEU          
   2 D  361  VAL ASP GLN ASN PHE LYS PRO LEU LEU GLU LYS TYR ASP          
   3 D  361  VAL PRO GLY MET ALA VAL GLY VAL ILE GLN ASN ASN LYS          
   4 D  361  LYS TYR GLU MET TYR TYR GLY LEU GLN SER VAL GLN ASP          
   5 D  361  LYS LYS ALA VAL ASN SER ASN THR ILE PHE GLU LEU GLY          
   6 D  361  SER VAL SER LYS LEU PHE THR ALA THR ALA GLY GLY TYR          
   7 D  361  ALA LYS ASN LYS GLY LYS ILE SER PHE ASP ASP THR PRO          
   8 D  361  GLY LYS TYR TRP LYS GLU LEU LYS ASN THR PRO ILE ASP          
   9 D  361  GLN VAL ASN LEU LEU GLN LEU ALA THR TYR THR SER GLY          
  10 D  361  ASN LEU ALA LEU GLN PHE PRO ASP GLU VAL GLN THR ASP          
  11 D  361  GLN GLN VAL LEU THR PHE PHE LYS ASP TRP LYS PRO LYS          
  12 D  361  ASN PRO ILE GLY GLU TYR ARG GLN TYR SER ASN PRO SER          
  13 D  361  ILE GLY LEU PHE GLY LYS VAL VAL ALA LEU SER MET ASN          
  14 D  361  LYS PRO PHE ASP GLN VAL LEU GLU LYS THR ILE PHE PRO          
  15 D  361  ALA LEU GLY LEU LYS HIS SER TYR VAL ASN VAL PRO LYS          
  16 D  361  THR GLN MET GLN ASN TYR ALA PHE GLY TYR ASN GLN GLU          
  17 D  361  ASN GLN PRO ILE ARG VAL ASN PRO GLY PRO LEU ASP ALA          
  18 D  361  PRO ALA TYR GLY VAL LYS SER THR LEU PRO ASP MET LEU          
  19 D  361  SER PHE ILE HIS ALA ASN LEU ASN PRO GLN LYS TYR PRO          
  20 D  361  THR ASP ILE GLN ARG ALA ILE ASN GLU THR HIS GLN GLY          
  21 D  361  ARG TYR GLN VAL ASN THR MET TYR GLN ALA LEU GLY TRP          
  22 D  361  GLU GLU PHE SER TYR PRO ALA THR LEU GLN THR LEU LEU          
  23 D  361  ASP SER ASN SER GLU GLN ILE VAL MET LYS PRO ASN LYS          
  24 D  361  VAL THR ALA ILE SER LYS GLU PRO SER VAL LYS MET TYR          
  25 D  361  HIS LYS THR GLY SER THR SER GLY PHE GLY THR TYR VAL          
  26 D  361  VAL PHE ILE PRO LYS GLU ASN ILE GLY LEU VAL MET LEU          
  27 D  361  THR ASN LYS ARG ILE PRO ASN GLU GLU ARG ILE LYS ALA          
  28 D  361  ALA TYR VAL VAL LEU ASN ALA ILE LYS LYS                      

>  <HET>
 LP0  A 401      26                                                       
 LP0  B 401      26                                                       
 LP0  C 401      26                                                       
 GLY  C 402       5                                                       
 LP0  D 401      26                                                       

>  <HETNAM>
     LP0 (7Z)-7-(2-AMINO-1,3-THIAZOL-4-YL)-1,1,3-TRIHYDROXY-10,           
   2 LP0  10-DIMETHYL-1,6-DIOXO-2,9-DIOXA-5,8-DIAZA-1LAMBDA~5~-           
   3 LP0  PHOSPHA-3-BORAUNDEC-7-EN-11-OIC ACID                            
     GLY GLYCINE                                                          

>  <FORMUL>
   5  LP0    4(C10 H16 B N4 O9 P S)                                       
   8  GLY    C2 H5 N O2                                                   
  10  HOH   *545(H2 O)                                                    

>  <HELIX>
   1 AA1 GLN A    6  PHE A   16  1                                  11    
   2 AA2 LYS A   17  ASP A   24  1                                   8    
   3 AA3 VAL A   65  LYS A   80  1                                  16    
   4 AA4 THR A   88  TYR A   92  5                                   5    
   5 AA5 TRP A   93  LYS A   97  5                                   5    
   6 AA6 THR A   99  VAL A  104  5                                   6    
   7 AA7 ASN A  105  THR A  111  1                                   7    
   8 AA8 THR A  127  TRP A  138  1                                  12    
   9 AA9 SER A  151  MET A  166  1                                  16    
  10 AB1 PRO A  169  THR A  177  1                                   9    
  11 AB2 THR A  177  LEU A  182  1                                   6    
  12 AB3 PRO A  192  TYR A  199  5                                   8    
  13 AB4 LEU A  217  GLY A  223  1                                   7    
  14 AB5 THR A  227  ASN A  240  1                                  14    
  15 AB6 PRO A  241  TYR A  244  5                                   4    
  16 AB7 PRO A  245  HIS A  256  1                                  12    
  17 AB8 THR A  279  SER A  286  1                                   8    
  18 AB9 SER A  288  LYS A  294  1                                   7    
  19 AC1 PRO A  327  GLU A  329  5                                   3    
  20 AC2 PRO A  342  LYS A  359  1                                  18    
  21 AC3 PRO B    3  PHE B   16  1                                  14    
  22 AC4 LYS B   17  ASP B   24  1                                   8    
  23 AC5 VAL B   65  LYS B   80  1                                  16    
  24 AC6 THR B   88  TYR B   92  5                                   5    
  25 AC7 TRP B   93  LYS B   97  5                                   5    
  26 AC8 THR B   99  VAL B  104  5                                   6    
  27 AC9 ASN B  105  THR B  111  1                                   7    
  28 AD1 THR B  127  TRP B  138  1                                  12    
  29 AD2 SER B  151  MET B  166  1                                  16    
  30 AD3 PRO B  169  THR B  177  1                                   9    
  31 AD4 THR B  177  LEU B  182  1                                   6    
  32 AD5 PRO B  192  TYR B  199  5                                   8    
  33 AD6 LEU B  217  GLY B  223  1                                   7    
  34 AD7 THR B  227  ASN B  240  1                                  14    
  35 AD8 PRO B  241  TYR B  244  5                                   4    
  36 AD9 PRO B  245  HIS B  256  1                                  12    
  37 AE1 THR B  279  SER B  286  1                                   8    
  38 AE2 SER B  288  LYS B  294  1                                   7    
  39 AE3 PRO B  327  GLU B  329  5                                   3    
  40 AE4 PRO B  342  ILE B  357  1                                  16    
  41 AE5 LYS C    4  PHE C   16  1                                  13    
  42 AE6 LYS C   17  ASP C   24  1                                   8    
  43 AE7 VAL C   65  LYS C   80  1                                  16    
  44 AE8 THR C   88  TYR C   92  5                                   5    
  45 AE9 TRP C   93  LYS C   97  5                                   5    
  46 AF1 THR C   99  VAL C  104  5                                   6    
  47 AF2 ASN C  105  THR C  111  1                                   7    
  48 AF3 THR C  127  ASP C  137  1                                  11    
  49 AF4 SER C  151  MET C  166  1                                  16    
  50 AF5 PRO C  169  THR C  177  1                                   9    
  51 AF6 THR C  177  LEU C  182  1                                   6    
  52 AF7 PRO C  192  TYR C  199  5                                   8    
  53 AF8 LEU C  217  GLY C  223  1                                   7    
  54 AF9 THR C  227  ASN C  240  1                                  14    
  55 AG1 PRO C  241  TYR C  244  5                                   4    
  56 AG2 PRO C  245  HIS C  256  1                                  12    
  57 AG3 THR C  279  SER C  286  1                                   8    
  58 AG4 SER C  288  LYS C  294  1                                   7    
  59 AG5 PRO C  327  GLU C  329  5                                   3    
  60 AG6 PRO C  342  ASN C  355  1                                  14    
  61 AG7 LYS D    4  PHE D   16  1                                  13    
  62 AG8 LYS D   17  ASP D   24  1                                   8    
  63 AG9 VAL D   65  LYS D   80  1                                  16    
  64 AH1 THR D   88  TYR D   92  5                                   5    
  65 AH2 TRP D   93  LYS D   97  5                                   5    
  66 AH3 THR D   99  VAL D  104  5                                   6    
  67 AH4 ASN D  105  THR D  111  1                                   7    
  68 AH5 THR D  127  ASP D  137  1                                  11    
  69 AH6 SER D  151  MET D  166  1                                  16    
  70 AH7 PRO D  169  THR D  177  1                                   9    
  71 AH8 THR D  177  LEU D  182  1                                   6    
  72 AH9 PRO D  192  TYR D  199  5                                   8    
  73 AI1 LEU D  217  GLY D  223  1                                   7    
  74 AI2 THR D  227  ASN D  240  1                                  14    
  75 AI3 PRO D  241  TYR D  244  5                                   4    
  76 AI4 PRO D  245  HIS D  256  1                                  12    
  77 AI5 THR D  279  SER D  286  1                                   8    
  78 AI6 SER D  288  LYS D  294  1                                   7    
  79 AI7 PRO D  327  GLU D  329  5                                   3    
  80 AI8 PRO D  342  ASN D  355  1                                  14    

>  <SHEET>
   1 AA1 9 LYS A  52  ALA A  53  0                                        
   2 AA1 9 LYS A  37  SER A  47 -1  N  GLN A  46   O  LYS A  52           
   3 AA1 9 GLY A  27  GLN A  34 -1  N  VAL A  32   O  TYR A  39           
   4 AA1 9 ILE A 331  THR A 337 -1  O  LEU A 336   N  ALA A  29           
   5 AA1 9 GLY A 320  ILE A 326 -1  N  TYR A 322   O  MET A 335           
   6 AA1 9 LYS A 308  SER A 315 -1  N  GLY A 314   O  THR A 321           
   7 AA1 9 GLU A 272  SER A 275 -1  N  PHE A 274   O  MET A 309           
   8 AA1 9 MET A 265  GLN A 267 -1  N  TYR A 266   O  GLU A 273           
   9 AA1 9 TYR A 260  VAL A 262 -1  N  VAL A 262   O  MET A 265           
   1 AA2 2 PHE A  60  GLU A  61  0                                        
   2 AA2 2 LYS A 225  SER A 226 -1  O  SER A 226   N  PHE A  60           
   1 AA3 2 TYR A 147  ARG A 148  0                                        
   2 AA3 2 ASN A 296  LYS A 297 -1  O  ASN A 296   N  ARG A 148           
   1 AA4 2 GLY A 202  TYR A 203  0                                        
   2 AA4 2 PRO A 209  ILE A 210 -1  O  ILE A 210   N  GLY A 202           
   1 AA5 9 LYS B  52  ALA B  53  0                                        
   2 AA5 9 LYS B  37  SER B  47 -1  N  GLN B  46   O  LYS B  52           
   3 AA5 9 GLY B  27  GLN B  34 -1  N  VAL B  32   O  TYR B  39           
   4 AA5 9 ILE B 331  THR B 337 -1  O  LEU B 336   N  ALA B  29           
   5 AA5 9 GLY B 320  ILE B 326 -1  N  TYR B 322   O  MET B 335           
   6 AA5 9 LYS B 308  SER B 315 -1  N  GLY B 314   O  THR B 321           
   7 AA5 9 GLU B 272  SER B 275 -1  N  PHE B 274   O  MET B 309           
   8 AA5 9 MET B 265  GLN B 267 -1  N  TYR B 266   O  GLU B 273           
   9 AA5 9 TYR B 260  VAL B 262 -1  N  VAL B 262   O  MET B 265           
   1 AA6 2 PHE B  60  GLU B  61  0                                        
   2 AA6 2 LYS B 225  SER B 226 -1  O  SER B 226   N  PHE B  60           
   1 AA7 2 TYR B 147  ARG B 148  0                                        
   2 AA7 2 ASN B 296  LYS B 297 -1  O  ASN B 296   N  ARG B 148           
   1 AA8 2 GLY B 202  TYR B 203  0                                        
   2 AA8 2 PRO B 209  ILE B 210 -1  O  ILE B 210   N  GLY B 202           
   1 AA9 9 LYS C  52  ALA C  53  0                                        
   2 AA9 9 LYS C  37  SER C  47 -1  N  GLN C  46   O  LYS C  52           
   3 AA9 9 GLY C  27  GLN C  34 -1  N  VAL C  32   O  TYR C  39           
   4 AA9 9 ILE C 331  THR C 337 -1  O  LEU C 336   N  ALA C  29           
   5 AA9 9 GLY C 320  ILE C 326 -1  N  TYR C 322   O  MET C 335           
   6 AA9 9 LYS C 308  SER C 315 -1  N  GLY C 314   O  THR C 321           
   7 AA9 9 GLU C 272  SER C 275 -1  N  PHE C 274   O  MET C 309           
   8 AA9 9 MET C 265  GLN C 267 -1  N  TYR C 266   O  GLU C 273           
   9 AA9 9 TYR C 260  VAL C 262 -1  N  VAL C 262   O  MET C 265           
   1 AB1 2 PHE C  60  GLU C  61  0                                        
   2 AB1 2 LYS C 225  SER C 226 -1  O  SER C 226   N  PHE C  60           
   1 AB2 2 TYR C 147  ARG C 148  0                                        
   2 AB2 2 ASN C 296  LYS C 297 -1  O  ASN C 296   N  ARG C 148           
   1 AB3 2 GLY C 202  TYR C 203  0                                        
   2 AB3 2 PRO C 209  ILE C 210 -1  O  ILE C 210   N  GLY C 202           
   1 AB410 LYS D  52  ALA D  53  0                                        
   2 AB410 LYS D  37  SER D  47 -1  N  GLN D  46   O  LYS D  52           
   3 AB410 GLY D  27  GLN D  34 -1  N  VAL D  32   O  TYR D  39           
   4 AB410 ILE D 331  THR D 337 -1  O  LEU D 336   N  ALA D  29           
   5 AB410 GLY D 320  ILE D 326 -1  N  TYR D 322   O  MET D 335           
   6 AB410 LYS D 308  SER D 315 -1  N  GLY D 314   O  THR D 321           
   7 AB410 GLU D 272  SER D 275 -1  N  PHE D 274   O  MET D 309           
   8 AB410 MET D 265  GLN D 267 -1  N  TYR D 266   O  GLU D 273           
   9 AB410 TYR D 260  VAL D 262 -1  N  VAL D 262   O  MET D 265           
  10 AB410 THR D 299  ALA D 300 -1  O  THR D 299   N  GLN D 261           
   1 AB5 2 PHE D  60  GLU D  61  0                                        
   2 AB5 2 LYS D 225  SER D 226 -1  O  SER D 226   N  PHE D  60           
   1 AB6 2 TYR D 147  ARG D 148  0                                        
   2 AB6 2 ASN D 296  LYS D 297 -1  O  ASN D 296   N  ARG D 148           
   1 AB7 2 GLY D 202  TYR D 203  0                                        
   2 AB7 2 PRO D 209  ILE D 210 -1  O  ILE D 210   N  GLY D 202           

>  <LINK>
       OG  SER A  64                 B1  LP0 A 401     1555   1555  1.43  
       OG  SER B  64                 B1  LP0 B 401     1555   1555  1.42  
       OG  SER C  64                 B1  LP0 C 401     1555   1555  1.43  
       OG  SER D  64                 B1  LP0 D 401     1555   1555  1.41  

>  <CISPEP>
   1 TYR A  276    PRO A  277          0        -1.72                     
   2 TYR B  276    PRO B  277          0         1.93                     
   3 TYR C  276    PRO C  277          0         0.53                     
   4 TYR D  276    PRO D  277          0        -0.10                     

>  <SITE>
   1 AC1 15 SER A  64  LEU A 119  GLN A 120  TYR A 150                    
   2 AC1 15 ASN A 152  VAL A 212  TYR A 222  THR A 313                    
   3 AC1 15 GLY A 314  SER A 315  THR A 316  SER A 317                    
   4 AC1 15 ARG A 340  HOH A 514  HOH A 556                               
   1 AC2  3 GLN C 120  TYR C 222  LP0 C 401                               
   1 AC3 21 LEU B  62  GLY B  63  VAL B  65  SER B  66                    
   2 AC3 21 LYS B  67  LEU B 119  GLN B 120  TYR B 150                    
   3 AC3 21 ASN B 152  ALA B 221  TYR B 222  THR B 313                    
   4 AC3 21 GLY B 314  SER B 315  SER B 317  ARG B 340                    
   5 AC3 21 HOH B 512  HOH B 538  HOH B 613  HOH B 675                    
   6 AC3 21 HOH B 691                                                     
   1 AC4 20 LEU C  62  GLY C  63  VAL C  65  SER C  66                    
   2 AC4 20 LYS C  67  GLN C 120  TYR C 150  ASN C 152                    
   3 AC4 20 ALA C 221  TYR C 222  MET C 293  LYS C 312                    
   4 AC4 20 THR C 313  GLY C 314  SER C 315  SER C 317                    
   5 AC4 20 ARG C 340  GLY C 402  HOH C 514  HOH C 531                    
   1 AC5 18 LEU D  62  GLY D  63  VAL D  65  SER D  66                    
   2 AC5 18 LYS D  67  GLN D 120  TYR D 150  ASN D 152                    
   3 AC5 18 TYR D 222  LYS D 312  THR D 313  GLY D 314                    
   4 AC5 18 SER D 315  SER D 317  ARG D 340  HOH D 526                    
   5 AC5 18 HOH D 532  HOH D 546                                          

>  <ORIGX1>
      1.000000  0.000000  0.000000        0.00000                         

>  <ORIGX2>
      0.000000  1.000000  0.000000        0.00000                         

>  <ORIGX3>
      0.000000  0.000000  1.000000        0.00000                         

>  <SCALE1>
      0.011398  0.000000  0.004836        0.00000                         

>  <SCALE2>
      0.000000  0.012303  0.000000        0.00000                         

>  <SCALE3>
      0.000000  0.000000  0.010334        0.00000                         

>  <MASTER>
      446    0    5   80   61    0   21    611689    4  108  112          

$$$$
