start_structures/Ligand_Substrate/Ligand_Complex_Stripped/M9W_6T35.pdb
 OpenBabel08222315213D

 27 27  0  0  1  0  0  0  0  0999 V2000
  -14.0340   10.1900   25.7370 N   0  0  0  0  0  0  0  0  0  0  0  0
  -15.3380    9.6370   26.0560 C   0  0  2  0  0  0  0  0  0  0  0  0
  -15.5270    8.1310   25.9290 C   0  0  0  0  0  0  0  0  0  0  0  0
  -16.5370    7.6330   26.3070 O   0  0  0  0  0  0  0  0  0  0  0  0
  -16.3990   10.3250   25.1650 C   0  0  0  0  0  0  0  0  0  0  0  0
  -16.5700   11.6080   25.6850 O   0  0  0  0  0  0  0  0  0  0  0  0
  -15.7930   12.5790   25.0540 C   0  0  0  0  0  0  0  0  0  0  0  0
  -15.9200   14.0170   25.5290 C   0  0  0  0  0  0  0  0  0  0  0  0
  -14.8220   14.7460   25.4840 C   0  0  0  0  0  0  0  0  0  0  0  0
  -13.8620   17.0520   25.2090 C   0  0  1  0  0  0  0  0  0  0  0  0
  -14.6700   17.9750   24.3050 C   0  0  0  0  0  0  0  0  0  0  0  0
  -13.0040   17.7850   26.2470 C   0  0  2  0  0  0  0  0  0  0  0  0
  -12.5810   16.8000   27.3370 C   0  0  0  0  0  0  0  0  0  0  0  0
  -13.7960   18.9730   26.7940 C   0  0  0  0  0  0  0  0  0  0  0  0
  -11.4860   19.6220   31.1380 C   0  0  0  0  0  0  0  0  0  0  0  0
  -13.7470   20.1420   30.2580 C   0  0  0  0  0  0  0  0  0  0  0  0
  -14.4060   19.9470   28.9940 C   0  0  0  0  0  0  0  0  0  0  0  0
  -14.7960   16.1480   25.8870 N   0  0  0  0  0  0  0  0  0  0  0  0
  -13.5190   19.3400   28.1940 N   0  0  0  0  0  0  0  0  0  0  0  0
  -12.3920   19.1790   28.8730 N   0  0  0  0  0  0  0  0  0  0  0  0
  -12.5180   19.6450   30.1080 N   0  0  0  0  0  0  0  0  0  0  0  0
  -15.0380   12.3190   24.1610 O   0  0  0  0  0  0  0  0  0  0  0  0
  -14.3370   18.1160   23.1000 O   0  0  0  0  0  0  0  0  0  0  0  0
  -15.6800   18.5900   24.7420 O   0  0  0  0  0  0  0  0  0  0  0  0
  -10.7630   19.2900   26.3310 O   0  0  0  0  0  0  0  0  0  0  0  0
  -11.8400   19.2990   24.3340 O   0  0  0  0  0  0  0  0  0  0  0  0
  -11.5070   18.4010   25.4380 S   0  0  0  0  0  0  0  0  0  0  0  0
  2  1  1  6  0  0  0
  3  2  1  0  0  0  0
  3  4  2  0  0  0  0
  5  6  1  0  0  0  0
  5  2  1  0  0  0  0
  6  7  1  0  0  0  0
  7  8  1  0  0  0  0
  7 22  2  0  0  0  0
  8  9  2  0  0  0  0
  9 18  1  0  0  0  0
 10 11  1  1  0  0  0
 10 12  1  0  0  0  0
 10 18  1  0  0  0  0
 11 23  2  0  0  0  0
 11 24  1  0  0  0  0
 12 13  1  1  0  0  0
 12 14  1  0  0  0  0
 12 27  1  0  0  0  0
 14 19  1  0  0  0  0
 15 21  1  0  0  0  0
 16 17  2  0  0  0  0
 16 21  1  0  0  0  0
 17 19  1  0  0  0  0
 19 20  1  0  0  0  0
 20 21  1  0  0  0  0
 25 27  1  0  0  0  0
 26 27  1  0  0  0  0
M  END
>  <HEADER>
    HYDROLASE                               10-OCT-19   6T35              

>  <TITLE>
    CRYSTAL STRUCTURE OF AMPC FROM E.COLI WITH ENMETAZOBACTAM (AAI-101)   

>  <COMPND>
    MOL_ID: 1;                                                            
   2 MOLECULE: BETA-LACTAMASE;                                            
   3 CHAIN: A;                                                            
   4 SYNONYM: CEPHALOSPORINASE;                                           
   5 EC: 3.5.2.6;                                                         
   6 ENGINEERED: YES                                                      

>  <SOURCE>
    MOL_ID: 1;                                                            
   2 ORGANISM_SCIENTIFIC: ESCHERICHIA COLI K-12;                          
   3 ORGANISM_TAXID: 83333;                                               
   4 GENE: AMPC, AMPA, B4150, JW4111;                                     
   5 EXPRESSION_SYSTEM: ESCHERICHIA COLI STR. K-12 SUBSTR. W3110;         
   6 EXPRESSION_SYSTEM_TAXID: 316407                                      

>  <KEYWDS>
    BETA LACTAMASE, ANTIBIOTIC RESISTANCE, ANTIMICROBIAL PROTEIN,         
   2 MECHANISM BASED INHIBITOR, HYDROLASE                                 

>  <EXPDTA>
    X-RAY DIFFRACTION                                                     

>  <AUTHOR>
    P.A.LANG,T.M.LEISSING,C.J.SCHOFIELD,J.BREM                            

>  <REVDAT>
   2   11-MAY-22 6T35    1       JRNL                                     
   1   18-NOV-20 6T35    0                                                

>  <JRNL>
      AUTH   P.A.LANG,R.RAJ,A.TUMBER,C.T.LOHANS,P.RABE,C.V.ROBINSON,      
      AUTH 2 J.BREM,C.J.SCHOFIELD                                         
      TITL   STUDIES ON ENMETAZOBACTAM CLARIFY MECHANISMS OF WIDELY USED  
      TITL 2 BETA-LACTAMASE INHIBITORS.                                   
      REF    PROC.NATL.ACAD.SCI.USA        V. 119 10119 2022              
      REFN                   ESSN 1091-6490                               
      PMID   35486701                                                     
      DOI    10.1073/PNAS.2117310119                                      

>  <REMARK>
   2                                                                      
   2 RESOLUTION.    1.75 ANGSTROMS.                                       
   3                                                                      
   3 REFINEMENT.                                                          
   3   PROGRAM     : PHENIX 1.15.2_3472                                   
   3   AUTHORS     : PAUL ADAMS,PAVEL AFONINE,VINCENT CHEN,IAN            
   3               : DAVIS,KRESHNA GOPAL,RALF GROSSE-KUNSTLEVE,           
   3               : LI-WEI HUNG,ROBERT IMMORMINO,TOM IOERGER,            
   3               : AIRLIE MCCOY,ERIK MCKEE,NIGEL MORIARTY,              
   3               : REETAL PAI,RANDY READ,JANE RICHARDSON,               
   3               : DAVID RICHARDSON,TOD ROMO,JIM SACCHETTINI,           
   3               : NICHOLAS SAUTER,JACOB SMITH,LAURENT                  
   3               : STORONI,TOM TERWILLIGER,PETER ZWART                  
   3                                                                      
   3    REFINEMENT TARGET : NULL                                          
   3                                                                      
   3  DATA USED IN REFINEMENT.                                            
   3   RESOLUTION RANGE HIGH (ANGSTROMS) : 1.75                           
   3   RESOLUTION RANGE LOW  (ANGSTROMS) : 43.64                          
   3   MIN(FOBS/SIGMA_FOBS)              : 1.340                          
   3   COMPLETENESS FOR RANGE        (%) : 100.0                          
   3   NUMBER OF REFLECTIONS             : 45721                          
   3                                                                      
   3  FIT TO DATA USED IN REFINEMENT.                                     
   3   R VALUE     (WORKING + TEST SET) : 0.168                           
   3   R VALUE            (WORKING SET) : 0.167                           
   3   FREE R VALUE                     : 0.184                           
   3   FREE R VALUE TEST SET SIZE   (%) : 4.860                           
   3   FREE R VALUE TEST SET COUNT      : 2223                            
   3                                                                      
   3  FIT TO DATA USED IN REFINEMENT (IN BINS).                           
   3   BIN  RESOLUTION RANGE  COMPL.    NWORK NFREE   RWORK  RFREE        
   3     1 43.6390 -  4.4085    1.00     2971   161  0.1694 0.1581        
   3     2  4.4085 -  3.4996    1.00     2821   128  0.1385 0.1610        
   3     3  3.4996 -  3.0574    1.00     2760   141  0.1706 0.2126        
   3     4  3.0574 -  2.7779    1.00     2752   122  0.1722 0.2089        
   3     5  2.7779 -  2.5788    1.00     2722   147  0.1649 0.1894        
   3     6  2.5788 -  2.4268    1.00     2724   123  0.1648 0.1833        
   3     7  2.4268 -  2.3052    1.00     2706   130  0.1551 0.1974        
   3     8  2.3052 -  2.2049    1.00     2678   164  0.1570 0.1708        
   3     9  2.2049 -  2.1200    1.00     2702   117  0.1628 0.1842        
   3    10  2.1200 -  2.0469    1.00     2654   160  0.1753 0.1766        
   3    11  2.0469 -  1.9829    1.00     2684   143  0.1755 0.2109        
   3    12  1.9829 -  1.9262    1.00     2666   140  0.1919 0.1962        
   3    13  1.9262 -  1.8755    1.00     2679   145  0.2128 0.2634        
   3    14  1.8755 -  1.8297    1.00     2630   150  0.2327 0.2505        
   3    15  1.8297 -  1.7881    1.00     2675   131  0.2481 0.2748        
   3    16  1.7881 -  1.7501    1.00     2674   121  0.2964 0.3164        
   3                                                                      
   3  BULK SOLVENT MODELLING.                                             
   3   METHOD USED        : NULL                                          
   3   SOLVENT RADIUS     : 1.11                                          
   3   SHRINKAGE RADIUS   : 0.90                                          
   3   K_SOL              : NULL                                          
   3   B_SOL              : NULL                                          
   3                                                                      
   3  ERROR ESTIMATES.                                                    
   3   COORDINATE ERROR (MAXIMUM-LIKELIHOOD BASED)     : 0.190            
   3   PHASE ERROR (DEGREES, MAXIMUM-LIKELIHOOD BASED) : 17.400           
   3                                                                      
   3  B VALUES.                                                           
   3   FROM WILSON PLOT           (A**2) : NULL                           
   3   MEAN B VALUE      (OVERALL, A**2) : 39.08                          
   3   OVERALL ANISOTROPIC B VALUE.                                       
   3    B11 (A**2) : NULL                                                 
   3    B22 (A**2) : NULL                                                 
   3    B33 (A**2) : NULL                                                 
   3    B12 (A**2) : NULL                                                 
   3    B13 (A**2) : NULL                                                 
   3    B23 (A**2) : NULL                                                 
   3                                                                      
   3  TWINNING INFORMATION.                                               
   3   FRACTION: NULL                                                     
   3   OPERATOR: NULL                                                     
   3                                                                      
   3  DEVIATIONS FROM IDEAL VALUES.                                       
   3                 RMSD          COUNT                                  
   3   BOND      :   NULL           NULL                                  
   3   ANGLE     :   NULL           NULL                                  
   3   CHIRALITY :   NULL           NULL                                  
   3   PLANARITY :   NULL           NULL                                  
   3   DIHEDRAL  :   NULL           NULL                                  
   3                                                                      
   3  TLS DETAILS                                                         
   3   NUMBER OF TLS GROUPS  : 7                                          
   3   TLS GROUP : 1                                                      
   3    SELECTION: CHAIN 'A' AND (RESID 4 THROUGH 23 )                    
   3    ORIGIN FOR THE GROUP (A):  -3.1911  -0.2191   6.8881              
   3    T TENSOR                                                          
   3      T11:   0.3151 T22:   0.2935                                     
   3      T33:   0.2735 T12:   0.0136                                     
   3      T13:   0.0226 T23:  -0.0113                                     
   3    L TENSOR                                                          
   3      L11:   0.1973 L22:   0.0110                                     
   3      L33:   0.4316 L12:   0.0631                                     
   3      L13:  -0.1493 L23:  -0.0600                                     
   3    S TENSOR                                                          
   3      S11:   0.0931 S12:   0.0421 S13:   0.0038                       
   3      S21:  -0.0092 S22:  -0.1913 S23:  -0.1118                       
   3      S31:  -0.0052 S32:  -0.0911 S33:  -0.0000                       
   3   TLS GROUP : 2                                                      
   3    SELECTION: CHAIN 'A' AND (RESID 24 THROUGH 54 )                   
   3    ORIGIN FOR THE GROUP (A):   0.0540   1.8725  16.9567              
   3    T TENSOR                                                          
   3      T11:   0.3271 T22:   0.3192                                     
   3      T33:   0.3304 T12:  -0.0542                                     
   3      T13:  -0.0209 T23:  -0.0191                                     
   3    L TENSOR                                                          
   3      L11:   0.5849 L22:   0.2108                                     
   3      L33:   0.7400 L12:  -0.3921                                     
   3      L13:  -0.7095 L23:   0.3313                                     
   3    S TENSOR                                                          
   3      S11:   0.1317 S12:  -0.2045 S13:  -0.0512                       
   3      S21:   0.2936 S22:  -0.0444 S23:  -0.4271                       
   3      S31:  -0.0332 S32:   0.2843 S33:  -0.0001                       
   3   TLS GROUP : 3                                                      
   3    SELECTION: CHAIN 'A' AND (RESID 55 THROUGH 162 )                  
   3    ORIGIN FOR THE GROUP (A): -24.7341  11.7647  34.9060              
   3    T TENSOR                                                          
   3      T11:   0.4509 T22:   0.2776                                     
   3      T33:   0.2672 T12:   0.0073                                     
   3      T13:   0.0849 T23:  -0.0433                                     
   3    L TENSOR                                                          
   3      L11:   1.2570 L22:   0.3176                                     
   3      L33:   1.7438 L12:   0.0904                                     
   3      L13:  -0.5666 L23:  -0.1458                                     
   3    S TENSOR                                                          
   3      S11:   0.2163 S12:  -0.1157 S13:   0.2643                       
   3      S21:   0.1688 S22:  -0.0093 S23:  -0.0319                       
   3      S31:  -0.4196 S32:  -0.0540 S33:   0.0011                       
   3   TLS GROUP : 4                                                      
   3    SELECTION: CHAIN 'A' AND (RESID 163 THROUGH 275 )                 
   3    ORIGIN FOR THE GROUP (A): -13.8522   2.0082  30.6154              
   3    T TENSOR                                                          
   3      T11:   0.3418 T22:   0.2852                                     
   3      T33:   0.2226 T12:  -0.0485                                     
   3      T13:   0.0005 T23:  -0.0230                                     
   3    L TENSOR                                                          
   3      L11:   1.6326 L22:   0.7625                                     
   3      L33:   1.7814 L12:   0.1810                                     
   3      L13:  -1.2947 L23:  -0.1457                                     
   3    S TENSOR                                                          
   3      S11:   0.1322 S12:  -0.2516 S13:   0.1027                       
   3      S21:   0.1785 S22:  -0.0592 S23:  -0.0574                       
   3      S31:  -0.1699 S32:   0.2077 S33:  -0.0000                       
   3   TLS GROUP : 5                                                      
   3    SELECTION: CHAIN 'A' AND (RESID 276 THROUGH 297 )                 
   3    ORIGIN FOR THE GROUP (A): -24.0988   7.5052  12.5660              
   3    T TENSOR                                                          
   3      T11:   0.4120 T22:   0.4148                                     
   3      T33:   0.3159 T12:   0.0462                                     
   3      T13:   0.0274 T23:  -0.0066                                     
   3    L TENSOR                                                          
   3      L11:   0.0894 L22:   0.0538                                     
   3      L33:   0.2849 L12:  -0.0232                                     
   3      L13:  -0.1408 L23:  -0.0911                                     
   3    S TENSOR                                                          
   3      S11:  -0.0996 S12:   0.3325 S13:   0.2131                       
   3      S21:   0.2048 S22:   0.1217 S23:   0.0047                       
   3      S31:   0.0128 S32:  -0.2761 S33:   0.0000                       
   3   TLS GROUP : 6                                                      
   3    SELECTION: CHAIN 'A' AND (RESID 298 THROUGH 332 )                 
   3    ORIGIN FOR THE GROUP (A): -21.4112  -0.0150  20.8504              
   3    T TENSOR                                                          
   3      T11:   0.3183 T22:   0.2647                                     
   3      T33:   0.2410 T12:  -0.0235                                     
   3      T13:   0.0278 T23:  -0.0107                                     
   3    L TENSOR                                                          
   3      L11:   0.4394 L22:   0.3468                                     
   3      L33:   0.6639 L12:  -0.2199                                     
   3      L13:  -0.4519 L23:   0.0597                                     
   3    S TENSOR                                                          
   3      S11:   0.0015 S12:   0.0276 S13:  -0.0575                       
   3      S21:   0.0825 S22:   0.0326 S23:  -0.1214                       
   3      S31:  -0.0920 S32:  -0.0895 S33:  -0.0000                       
   3   TLS GROUP : 7                                                      
   3    SELECTION: CHAIN 'A' AND (RESID 333 THROUGH 361 )                 
   3    ORIGIN FOR THE GROUP (A): -11.7661   2.2506  12.6009              
   3    T TENSOR                                                          
   3      T11:   0.3378 T22:   0.3205                                     
   3      T33:   0.2706 T12:   0.0012                                     
   3      T13:   0.0088 T23:  -0.0139                                     
   3    L TENSOR                                                          
   3      L11:   0.6773 L22:   0.1550                                     
   3      L33:   0.3892 L12:  -0.2760                                     
   3      L13:  -0.4283 L23:  -0.0236                                     
   3    S TENSOR                                                          
   3      S11:   0.1610 S12:   0.0719 S13:  -0.0163                       
   3      S21:   0.0095 S22:  -0.0955 S23:  -0.0714                       
   3      S31:  -0.1464 S32:  -0.1097 S33:   0.0000                       
   3                                                                      
   3  NCS DETAILS                                                         
   3   NUMBER OF NCS GROUPS : NULL                                        
   3                                                                      
   3  OTHER REFINEMENT REMARKS: NULL                                      
   4                                                                      
   4 6T35 COMPLIES WITH FORMAT V. 3.30, 13-JUL-11                         
 100                                                                      
 100 THIS ENTRY HAS BEEN PROCESSED BY PDBE ON 10-OCT-19.                  
 100 THE DEPOSITION ID IS D_1292104782.                                   
 200                                                                      
 200 EXPERIMENTAL DETAILS                                                 
 200  EXPERIMENT TYPE                : X-RAY DIFFRACTION                  
 200  DATE OF DATA COLLECTION        : 01-AUG-18                          
 200  TEMPERATURE           (KELVIN) : 100                                
 200  PH                             : 6.0                                
 200  NUMBER OF CRYSTALS USED        : 1                                  
 200                                                                      
 200  SYNCHROTRON              (Y/N) : Y                                  
 200  RADIATION SOURCE               : DIAMOND                            
 200  BEAMLINE                       : I03                                
 200  X-RAY GENERATOR MODEL          : NULL                               
 200  MONOCHROMATIC OR LAUE    (M/L) : M                                  
 200  WAVELENGTH OR RANGE        (A) : 0.9763                             
 200  MONOCHROMATOR                  : DOUBLE MIRRORS                     
 200  OPTICS                         : MIRROR                             
 200                                                                      
 200  DETECTOR TYPE                  : PIXEL                              
 200  DETECTOR MANUFACTURER          : DECTRIS PILATUS 2M                 
 200  INTENSITY-INTEGRATION SOFTWARE : XDS                                
 200  DATA SCALING SOFTWARE          : AIMLESS 0.7.1                      
 200                                                                      
 200  NUMBER OF UNIQUE REFLECTIONS   : 45784                              
 200  RESOLUTION RANGE HIGH      (A) : 1.750                              
 200  RESOLUTION RANGE LOW       (A) : 56.340                             
 200  REJECTION CRITERIA  (SIGMA(I)) : NULL                               
 200                                                                      
 200 OVERALL.                                                             
 200  COMPLETENESS FOR RANGE     (%) : 100.0                              
 200  DATA REDUNDANCY                : 77.50                              
 200  R MERGE                    (I) : 0.12800                            
 200  R SYM                      (I) : NULL                               
 200  <I/SIGMA(I)> FOR THE DATA SET  : 28.1000                            
 200                                                                      
 200 IN THE HIGHEST RESOLUTION SHELL.                                     
 200  HIGHEST RESOLUTION SHELL, RANGE HIGH (A) : 1.75                     
 200  HIGHEST RESOLUTION SHELL, RANGE LOW  (A) : 1.80                     
 200  COMPLETENESS FOR SHELL     (%) : 100.0                              
 200  DATA REDUNDANCY IN SHELL       : 81.20                              
 200  R MERGE FOR SHELL          (I) : 5.43700                            
 200  R SYM FOR SHELL            (I) : NULL                               
 200  <I/SIGMA(I)> FOR SHELL         : NULL                               
 200                                                                      
 200 DIFFRACTION PROTOCOL: SINGLE WAVELENGTH                              
 200 METHOD USED TO DETERMINE THE STRUCTURE: MOLECULAR REPLACEMENT        
 200 SOFTWARE USED: PHASER 2.8.1                                          
 200 STARTING MODEL: 1IEM                                                 
 200                                                                      
 200 REMARK: NULL                                                         
 280                                                                      
 280 CRYSTAL                                                              
 280 SOLVENT CONTENT, VS   (%): 55.53                                     
 280 MATTHEWS COEFFICIENT, VM (ANGSTROMS**3/DA): 2.77                     
 280                                                                      
 280 CRYSTALLIZATION CONDITIONS: 30% W/V PEG6000, 0.01 M ZNCL2, 0.1 M     
 280  MES PH = 6.0, PH 6.0, VAPOR DIFFUSION, SITTING DROP, TEMPERATURE    
 280  298K                                                                
 290                                                                      
 290 CRYSTALLOGRAPHIC SYMMETRY                                            
 290 SYMMETRY OPERATORS FOR SPACE GROUP: P 43 3 2                         
 290                                                                      
 290      SYMOP   SYMMETRY                                                
 290     NNNMMM   OPERATOR                                                
 290       1555   X,Y,Z                                                   
 290       2555   -X+1/2,-Y,Z+1/2                                         
 290       3555   -X,Y+1/2,-Z+1/2                                         
 290       4555   X+1/2,-Y+1/2,-Z                                         
 290       5555   Z,X,Y                                                   
 290       6555   Z+1/2,-X+1/2,-Y                                         
 290       7555   -Z+1/2,-X,Y+1/2                                         
 290       8555   -Z,X+1/2,-Y+1/2                                         
 290       9555   Y,Z,X                                                   
 290      10555   -Y,Z+1/2,-X+1/2                                         
 290      11555   Y+1/2,-Z+1/2,-X                                         
 290      12555   -Y+1/2,-Z,X+1/2                                         
 290      13555   Y+1/4,X+3/4,-Z+3/4                                      
 290      14555   -Y+1/4,-X+1/4,-Z+1/4                                    
 290      15555   Y+3/4,-X+3/4,Z+1/4                                      
 290      16555   -Y+3/4,X+1/4,Z+3/4                                      
 290      17555   X+1/4,Z+3/4,-Y+3/4                                      
 290      18555   -X+3/4,Z+1/4,Y+3/4                                      
 290      19555   -X+1/4,-Z+1/4,-Y+1/4                                    
 290      20555   X+3/4,-Z+3/4,Y+1/4                                      
 290      21555   Z+1/4,Y+3/4,-X+3/4                                      
 290      22555   Z+3/4,-Y+3/4,X+1/4                                      
 290      23555   -Z+3/4,Y+1/4,X+3/4                                      
 290      24555   -Z+1/4,-Y+1/4,-X+1/4                                    
 290                                                                      
 290     WHERE NNN -> OPERATOR NUMBER                                     
 290           MMM -> TRANSLATION VECTOR                                  
 290                                                                      
 290 CRYSTALLOGRAPHIC SYMMETRY TRANSFORMATIONS                            
 290 THE FOLLOWING TRANSFORMATIONS OPERATE ON THE ATOM/HETATM             
 290 RECORDS IN THIS ENTRY TO PRODUCE CRYSTALLOGRAPHICALLY                
 290 RELATED MOLECULES.                                                   
 290   SMTRY1   1  1.000000  0.000000  0.000000        0.00000            
 290   SMTRY2   1  0.000000  1.000000  0.000000        0.00000            
 290   SMTRY3   1  0.000000  0.000000  1.000000        0.00000            
 290   SMTRY1   2 -1.000000  0.000000  0.000000       69.00000            
 290   SMTRY2   2  0.000000 -1.000000  0.000000        0.00000            
 290   SMTRY3   2  0.000000  0.000000  1.000000       69.00000            
 290   SMTRY1   3 -1.000000  0.000000  0.000000        0.00000            
 290   SMTRY2   3  0.000000  1.000000  0.000000       69.00000            
 290   SMTRY3   3  0.000000  0.000000 -1.000000       69.00000            
 290   SMTRY1   4  1.000000  0.000000  0.000000       69.00000            
 290   SMTRY2   4  0.000000 -1.000000  0.000000       69.00000            
 290   SMTRY3   4  0.000000  0.000000 -1.000000        0.00000            
 290   SMTRY1   5  0.000000  0.000000  1.000000        0.00000            
 290   SMTRY2   5  1.000000  0.000000  0.000000        0.00000            
 290   SMTRY3   5  0.000000  1.000000  0.000000        0.00000            
 290   SMTRY1   6  0.000000  0.000000  1.000000       69.00000            
 290   SMTRY2   6 -1.000000  0.000000  0.000000       69.00000            
 290   SMTRY3   6  0.000000 -1.000000  0.000000        0.00000            
 290   SMTRY1   7  0.000000  0.000000 -1.000000       69.00000            
 290   SMTRY2   7 -1.000000  0.000000  0.000000        0.00000            
 290   SMTRY3   7  0.000000  1.000000  0.000000       69.00000            
 290   SMTRY1   8  0.000000  0.000000 -1.000000        0.00000            
 290   SMTRY2   8  1.000000  0.000000  0.000000       69.00000            
 290   SMTRY3   8  0.000000 -1.000000  0.000000       69.00000            
 290   SMTRY1   9  0.000000  1.000000  0.000000        0.00000            
 290   SMTRY2   9  0.000000  0.000000  1.000000        0.00000            
 290   SMTRY3   9  1.000000  0.000000  0.000000        0.00000            
 290   SMTRY1  10  0.000000 -1.000000  0.000000        0.00000            
 290   SMTRY2  10  0.000000  0.000000  1.000000       69.00000            
 290   SMTRY3  10 -1.000000  0.000000  0.000000       69.00000            
 290   SMTRY1  11  0.000000  1.000000  0.000000       69.00000            
 290   SMTRY2  11  0.000000  0.000000 -1.000000       69.00000            
 290   SMTRY3  11 -1.000000  0.000000  0.000000        0.00000            
 290   SMTRY1  12  0.000000 -1.000000  0.000000       69.00000            
 290   SMTRY2  12  0.000000  0.000000 -1.000000        0.00000            
 290   SMTRY3  12  1.000000  0.000000  0.000000       69.00000            
 290   SMTRY1  13  0.000000  1.000000  0.000000       34.50000            
 290   SMTRY2  13  1.000000  0.000000  0.000000      103.50000            
 290   SMTRY3  13  0.000000  0.000000 -1.000000      103.50000            
 290   SMTRY1  14  0.000000 -1.000000  0.000000       34.50000            
 290   SMTRY2  14 -1.000000  0.000000  0.000000       34.50000            
 290   SMTRY3  14  0.000000  0.000000 -1.000000       34.50000            
 290   SMTRY1  15  0.000000  1.000000  0.000000      103.50000            
 290   SMTRY2  15 -1.000000  0.000000  0.000000      103.50000            
 290   SMTRY3  15  0.000000  0.000000  1.000000       34.50000            
 290   SMTRY1  16  0.000000 -1.000000  0.000000      103.50000            
 290   SMTRY2  16  1.000000  0.000000  0.000000       34.50000            
 290   SMTRY3  16  0.000000  0.000000  1.000000      103.50000            
 290   SMTRY1  17  1.000000  0.000000  0.000000       34.50000            
 290   SMTRY2  17  0.000000  0.000000  1.000000      103.50000            
 290   SMTRY3  17  0.000000 -1.000000  0.000000      103.50000            
 290   SMTRY1  18 -1.000000  0.000000  0.000000      103.50000            
 290   SMTRY2  18  0.000000  0.000000  1.000000       34.50000            
 290   SMTRY3  18  0.000000  1.000000  0.000000      103.50000            
 290   SMTRY1  19 -1.000000  0.000000  0.000000       34.50000            
 290   SMTRY2  19  0.000000  0.000000 -1.000000       34.50000            
 290   SMTRY3  19  0.000000 -1.000000  0.000000       34.50000            
 290   SMTRY1  20  1.000000  0.000000  0.000000      103.50000            
 290   SMTRY2  20  0.000000  0.000000 -1.000000      103.50000            
 290   SMTRY3  20  0.000000  1.000000  0.000000       34.50000            
 290   SMTRY1  21  0.000000  0.000000  1.000000       34.50000            
 290   SMTRY2  21  0.000000  1.000000  0.000000      103.50000            
 290   SMTRY3  21 -1.000000  0.000000  0.000000      103.50000            
 290   SMTRY1  22  0.000000  0.000000  1.000000      103.50000            
 290   SMTRY2  22  0.000000 -1.000000  0.000000      103.50000            
 290   SMTRY3  22  1.000000  0.000000  0.000000       34.50000            
 290   SMTRY1  23  0.000000  0.000000 -1.000000      103.50000            
 290   SMTRY2  23  0.000000  1.000000  0.000000       34.50000            
 290   SMTRY3  23  1.000000  0.000000  0.000000      103.50000            
 290   SMTRY1  24  0.000000  0.000000 -1.000000       34.50000            
 290   SMTRY2  24  0.000000 -1.000000  0.000000       34.50000            
 290   SMTRY3  24 -1.000000  0.000000  0.000000       34.50000            
 290                                                                      
 290 REMARK: NULL                                                         
 300                                                                      
 300 BIOMOLECULE: 1                                                       
 300 SEE REMARK 350 FOR THE AUTHOR PROVIDED AND/OR PROGRAM                
 300 GENERATED ASSEMBLY INFORMATION FOR THE STRUCTURE IN                  
 300 THIS ENTRY. THE REMARK MAY ALSO PROVIDE INFORMATION ON               
 300 BURIED SURFACE AREA.                                                 
 350                                                                      
 350 COORDINATES FOR A COMPLETE MULTIMER REPRESENTING THE KNOWN           
 350 BIOLOGICALLY SIGNIFICANT OLIGOMERIZATION STATE OF THE                
 350 MOLECULE CAN BE GENERATED BY APPLYING BIOMT TRANSFORMATIONS          
 350 GIVEN BELOW.  BOTH NON-CRYSTALLOGRAPHIC AND                          
 350 CRYSTALLOGRAPHIC OPERATIONS ARE GIVEN.                               
 350                                                                      
 350 BIOMOLECULE: 1                                                       
 350 AUTHOR DETERMINED BIOLOGICAL UNIT: MONOMERIC                         
 350 SOFTWARE DETERMINED QUATERNARY STRUCTURE: MONOMERIC                  
 350 SOFTWARE USED: PISA                                                  
 350 TOTAL BURIED SURFACE AREA: 990 ANGSTROM**2                           
 350 SURFACE AREA OF THE COMPLEX: 13670 ANGSTROM**2                       
 350 CHANGE IN SOLVENT FREE ENERGY: -106.0 KCAL/MOL                       
 350 APPLY THE FOLLOWING TO CHAINS: A                                     
 350   BIOMT1   1  1.000000  0.000000  0.000000        0.00000            
 350   BIOMT2   1  0.000000  1.000000  0.000000        0.00000            
 350   BIOMT3   1  0.000000  0.000000  1.000000        0.00000            
 375                                                                      
 375 SPECIAL POSITION                                                     
 375 THE FOLLOWING ATOMS ARE FOUND TO BE WITHIN 0.15 ANGSTROMS            
 375 OF A SYMMETRY RELATED ATOM AND ARE ASSUMED TO BE ON SPECIAL          
 375 POSITIONS.                                                           
 375                                                                      
 375 ATOM RES CSSEQI                                                      
 375 ZN    ZN A 405  LIES ON A SPECIAL POSITION.                          
 375 CL    CL A 408  LIES ON A SPECIAL POSITION.                          
 375      HOH A 721  LIES ON A SPECIAL POSITION.                          
 375      HOH A 729  LIES ON A SPECIAL POSITION.                          
 470                                                                      
 470 MISSING ATOM                                                         
 470 THE FOLLOWING RESIDUES HAVE MISSING ATOMS (M=MODEL NUMBER;           
 470 RES=RESIDUE NAME; C=CHAIN IDENTIFIER; SSEQ=SEQUENCE NUMBER;          
 470 I=INSERTION CODE):                                                   
 470   M RES CSSEQI  ATOMS                                                
 470     GLN A   6    CD   OE1  NE2                                       
 470     GLN A   7    CD   OE1  NE2                                       
 470     ARG A  14    CG   CD   NE   CZ   NH1  NH2                        
 470     TYR A  45    OH                                                  
 470     LYS A  51    CD   CE   NZ                                        
 470     GLN A  52    CD   OE1  NE2                                       
 470     GLN A  57    OE1  NE2                                            
 470     LYS A  84    NZ                                                  
 470     LYS A  91    NZ                                                  
 470     LYS A  99    CG   CD   CE   NZ                                   
 470     ASN A 102    CG   OD1  ND2                                       
 470     ASP A 123    CG   OD1  OD2                                       
 470     GLU A 124    CG   CD   OE1  OE2                                  
 470     LYS A 126    CD   CE   NZ                                        
 470     SER A 128    OG                                                  
 470     SER A 129    OG                                                  
 470     ARG A 133    CD   NE   CZ   NH1  NH2                             
 470     GLN A 139    CG   CD   OE1  NE2                                  
 470     LYS A 164    CE   NZ                                             
 470     GLN A 172    CG   CD   OE1  NE2                                  
 470     GLN A 175    CG   CD   OE1  NE2                                  
 470     LYS A 183    CD   CE   NZ                                        
 470     GLU A 196    CD   OE1  OE2                                       
 470     LYS A 197    CE   NZ                                             
 470     ARG A 204    NE   CZ   NH1  NH2                                  
 470     GLU A 205    CD   OE1  OE2                                       
 470     LYS A 207    CG   CD   CE   NZ                                   
 470     SER A 212    OG                                                  
 470     ARG A 232    NE   CZ   NH1  NH2                                  
 470     LYS A 239    CE   NZ                                             
 470     ASN A 244    OD1  ND2                                            
 470     LYS A 246    NZ                                                  
 470     LYS A 290    CG   CD   CE   NZ                                   
 470     ARG A 296    CG   CD   NE   CZ   NH1  NH2                        
 470     LYS A 299    CG   CD   CE   NZ                                   
 470     GLU A 331    CD   OE1  OE2                                       
 470     LYS A 332    CE   NZ                                             
 470     GLN A 355    CD   OE1  NE2                                       
 500                                                                      
 500 GEOMETRY AND STEREOCHEMISTRY                                         
 500 SUBTOPIC: CLOSE CONTACTS IN SAME ASYMMETRIC UNIT                     
 500                                                                      
 500 THE FOLLOWING ATOMS ARE IN CLOSE CONTACT.                            
 500                                                                      
 500  ATM1  RES C  SSEQI   ATM2  RES C  SSEQI           DISTANCE          
 500   O    HOH A   720     O    HOH A   747              1.84            
 500   O    HOH A   659     O    HOH A   720              2.19            
 500                                                                      
 500 REMARK: NULL                                                         
 500                                                                      
 500 GEOMETRY AND STEREOCHEMISTRY                                         
 500 SUBTOPIC: TORSION ANGLES                                             
 500                                                                      
 500 TORSION ANGLES OUTSIDE THE EXPECTED RAMACHANDRAN REGIONS:            
 500 (M=MODEL NUMBER; RES=RESIDUE NAME; C=CHAIN IDENTIFIER;               
 500 SSEQ=SEQUENCE NUMBER; I=INSERTION CODE).                             
 500                                                                      
 500 STANDARD TABLE:                                                      
 500 FORMAT:(10X,I3,1X,A3,1X,A1,I4,A1,4X,F7.2,3X,F7.2)                    
 500                                                                      
 500 EXPECTED VALUES: GJ KLEYWEGT AND TA JONES (1996). PHI/PSI-           
 500 CHOLOGY: RAMACHANDRAN REVISITED. STRUCTURE 4, 1395 - 1400            
 500                                                                      
 500  M RES CSSEQI        PSI       PHI                                   
 500    VAL A 178      -60.32   -124.33                                   
 500    TYR A 221       15.87   -158.59                                   
 500    ALA A 307      122.42    -38.75                                   
 500    ASN A 341       42.28    -97.12                                   
 500                                                                      
 500 REMARK: NULL                                                         
 610                                                                      
 610 MISSING HETEROATOM                                                   
 610 THE FOLLOWING RESIDUES HAVE MISSING ATOMS (M=MODEL NUMBER;           
 610 RES=RESIDUE NAME; C=CHAIN IDENTIFIER; SSEQ=SEQUENCE NUMBER;          
 610 I=INSERTION CODE):                                                   
 610   M RES C SSEQI                                                      
 610     PEG A  402                                                       
 610     PEG A  403                                                       
 620                                                                      
 620 METAL COORDINATION                                                   
 620 (M=MODEL NUMBER; RES=RESIDUE NAME; C=CHAIN IDENTIFIER;               
 620 SSEQ=SEQUENCE NUMBER; I=INSERTION CODE):                             
 620                                                                      
 620 COORDINATION ANGLES FOR:  M RES CSSEQI METAL                         
 620                              ZN A 405  ZN                            
 620 N RES CSSEQI ATOM                                                    
 620 1 HIS A  13   NE2                                                    
 620 2 HIS A  13   NE2   0.0                                              
 620 N                    1                                               
 620                                                                      
 620 COORDINATION ANGLES FOR:  M RES CSSEQI METAL                         
 620                              ZN A 407  ZN                            
 620 N RES CSSEQI ATOM                                                    
 620 1 HIS A 186   ND1                                                    
 620 2 ASP A 229   OD1 139.3                                              
 620 3 HOH A 620   O    93.1  95.3                                        
 620 4 HOH A 638   O    94.7  85.4 167.2                                  
 620 N                    1     2     3                                   
 800                                                                      
 800 SITE                                                                 
 800 SITE_IDENTIFIER: AC1                                                 
 800 EVIDENCE_CODE: SOFTWARE                                              
 800 SITE_DESCRIPTION: binding site for residue SO4 A 401                 
 800                                                                      
 800 SITE_IDENTIFIER: AC2                                                 
 800 EVIDENCE_CODE: SOFTWARE                                              
 800 SITE_DESCRIPTION: binding site for residue PEG A 402                 
 800                                                                      
 800 SITE_IDENTIFIER: AC3                                                 
 800 EVIDENCE_CODE: SOFTWARE                                              
 800 SITE_DESCRIPTION: binding site for residue M9W A 404                 
 800                                                                      
 800 SITE_IDENTIFIER: AC4                                                 
 800 EVIDENCE_CODE: SOFTWARE                                              
 800 SITE_DESCRIPTION: binding site for residue ZN A 405                  
 800                                                                      
 800 SITE_IDENTIFIER: AC5                                                 
 800 EVIDENCE_CODE: SOFTWARE                                              
 800 SITE_DESCRIPTION: binding site for residue ZN A 406                  
 800                                                                      
 800 SITE_IDENTIFIER: AC6                                                 
 800 EVIDENCE_CODE: SOFTWARE                                              
 800 SITE_DESCRIPTION: binding site for residue ZN A 407                  
 800                                                                      
 800 SITE_IDENTIFIER: AC7                                                 
 800 EVIDENCE_CODE: SOFTWARE                                              
 800 SITE_DESCRIPTION: binding site for residue CL A 408                  

>  <DBREF>
 6T35 A    4   361  UNP    P00811   AMPC_ECOLI      20    377             

>  <SEQRES>
   1 A  358  ALA PRO GLN GLN ILE ASN ASP ILE VAL HIS ARG THR ILE          
   2 A  358  THR PRO LEU ILE GLU GLN GLN LYS ILE PRO GLY MET ALA          
   3 A  358  VAL ALA VAL ILE TYR GLN GLY LYS PRO TYR TYR PHE THR          
   4 A  358  TRP GLY TYR ALA ASP ILE ALA LYS LYS GLN PRO VAL THR          
   5 A  358  GLN GLN THR LEU PHE GLU LEU GLY SER VAL SER LYS THR          
   6 A  358  PHE THR GLY VAL LEU GLY GLY ASP ALA ILE ALA ARG GLY          
   7 A  358  GLU ILE LYS LEU SER ASP PRO THR THR LYS TYR TRP PRO          
   8 A  358  GLU LEU THR ALA LYS GLN TRP ASN GLY ILE THR LEU LEU          
   9 A  358  HIS LEU ALA THR TYR THR ALA GLY GLY LEU PRO LEU GLN          
  10 A  358  VAL PRO ASP GLU VAL LYS SER SER SER ASP LEU LEU ARG          
  11 A  358  PHE TYR GLN ASN TRP GLN PRO ALA TRP ALA PRO GLY THR          
  12 A  358  GLN ARG LEU TYR ALA ASN SER SER ILE GLY LEU PHE GLY          
  13 A  358  ALA LEU ALA VAL LYS PRO SER GLY LEU SER PHE GLU GLN          
  14 A  358  ALA MET GLN THR ARG VAL PHE GLN PRO LEU LYS LEU ASN          
  15 A  358  HIS THR TRP ILE ASN VAL PRO PRO ALA GLU GLU LYS ASN          
  16 A  358  TYR ALA TRP GLY TYR ARG GLU GLY LYS ALA VAL HIS VAL          
  17 A  358  SER PRO GLY ALA LEU ASP ALA GLU ALA TYR GLY VAL LYS          
  18 A  358  SER THR ILE GLU ASP MET ALA ARG TRP VAL GLN SER ASN          
  19 A  358  LEU LYS PRO LEU ASP ILE ASN GLU LYS THR LEU GLN GLN          
  20 A  358  GLY ILE GLN LEU ALA GLN SER ARG TYR TRP GLN THR GLY          
  21 A  358  ASP MET TYR GLN GLY LEU GLY TRP GLU MET LEU ASP TRP          
  22 A  358  PRO VAL ASN PRO ASP SER ILE ILE ASN GLY SER ASP ASN          
  23 A  358  LYS ILE ALA LEU ALA ALA ARG PRO VAL LYS ALA ILE THR          
  24 A  358  PRO PRO THR PRO ALA VAL ARG ALA SER TRP VAL HIS LYS          
  25 A  358  THR GLY ALA THR GLY GLY PHE GLY SER TYR VAL ALA PHE          
  26 A  358  ILE PRO GLU LYS GLU LEU GLY ILE VAL MET LEU ALA ASN          
  27 A  358  LYS ASN TYR PRO ASN PRO ALA ARG VAL ASP ALA ALA TRP          
  28 A  358  GLN ILE LEU ASN ALA LEU GLN                                  

>  <HET>
 SO4  A 401       5                                                       
 PEG  A 402       4                                                       
 PEG  A 403       5                                                       
 M9W  A 404      21                                                       
  ZN  A 405       1                                                       
  ZN  A 406       1                                                       
  ZN  A 407       1                                                       
  CL  A 408       1                                                       

>  <HETNAM>
     SO4 SULFATE ION                                                      
     PEG DI(HYDROXYETHYL)ETHER                                            
     M9W ENMETAZOBACTAM DERIVED TRANS-ENAMINE ADDUCT.                     
      ZN ZINC ION                                                         
      CL CHLORIDE ION                                                     

>  <FORMUL>
   2  SO4    O4 S 2-                                                      
   3  PEG    2(C4 H10 O3)                                                 
   5  M9W    C11 H19 N4 O5 S 1+                                           
   6   ZN    3(ZN 2+)                                                     
   9   CL    CL 1-                                                        
  10  HOH   *256(H2 O)                                                    

>  <HELIX>
   1 AA1 PRO A    5  LYS A   24  1                                  20    
   2 AA2 VAL A   65  ARG A   80  1                                  16    
   3 AA3 PRO A   88  TRP A   93  1                                   6    
   4 AA4 ALA A   98  ASN A  102  5                                   5    
   5 AA5 THR A  105  THR A  111  1                                   7    
   6 AA6 SER A  127  TRP A  138  1                                  12    
   7 AA7 ALA A  151  VAL A  163  1                                  13    
   8 AA8 LYS A  164  GLY A  167  5                                   4    
   9 AA9 SER A  169  VAL A  178  1                                  10    
  10 AB1 PRO A  192  TYR A  199  5                                   8    
  11 AB2 LEU A  216  TYR A  221  1                                   6    
  12 AB3 THR A  226  LYS A  239  1                                  14    
  13 AB4 PRO A  240  ILE A  243  5                                   4    
  14 AB5 GLU A  245  GLN A  256  1                                  12    
  15 AB6 ASN A  279  SER A  287  1                                   9    
  16 AB7 ASP A  288  LEU A  293  1                                   6    
  17 AB8 PRO A  330  GLU A  333  5                                   4    
  18 AB9 PRO A  345  GLN A  361  1                                  17    

>  <SHEET>
   1 AA110 GLN A  52  PRO A  53  0                                        
   2 AA110 LYS A  37  ASP A  47 -1  N  ALA A  46   O  GLN A  52           
   3 AA110 GLY A  27  TYR A  34 -1  N  VAL A  30   O  PHE A  41           
   4 AA110 LEU A 334  ALA A 340 -1  O  LEU A 339   N  ALA A  29           
   5 AA110 GLY A 323  ILE A 329 -1  N  ILE A 329   O  LEU A 334           
   6 AA110 SER A 311  ALA A 318 -1  N  GLY A 317   O  SER A 324           
   7 AA110 GLU A 272  ASP A 275 -1  N  LEU A 274   O  TRP A 312           
   8 AA110 MET A 265  GLN A 267 -1  N  TYR A 266   O  MET A 273           
   9 AA110 ARG A 258  THR A 262 -1  N  TYR A 259   O  GLN A 267           
  10 AA110 LYS A 299  THR A 305 -1  O  LYS A 299   N  GLN A 261           
   1 AA2 3 PHE A  60  GLU A  61  0                                        
   2 AA2 3 LYS A 224  SER A 225 -1  O  SER A 225   N  PHE A  60           
   3 AA2 3 THR A 187  TRP A 188 -1  N  TRP A 188   O  LYS A 224           
   1 AA3 2 GLN A 147  ARG A 148  0                                        
   2 AA3 2 ARG A 296  PRO A 297 -1  O  ARG A 296   N  ARG A 148           
   1 AA4 2 GLY A 202  ARG A 204  0                                        
   2 AA4 2 LYS A 207  VAL A 209 -1  O  VAL A 209   N  GLY A 202           

>  <LINK>
       OG  SER A  64                 C02 M9W A 404     1555   1555  1.40  
       NE2 HIS A  13                ZN    ZN A 405     1555   1555  2.06  
       NE2 HIS A  13                ZN    ZN A 405     1555   5555  2.06  
       NE2 HIS A 186                ZN    ZN A 406     1555   1555  2.37  
       ND1 HIS A 186                ZN    ZN A 407     1555   1555  2.41  
       OD1 ASP A 229                ZN    ZN A 407     1555   1555  2.31  
      ZN    ZN A 407                 O   HOH A 620     1555   1555  2.34  
      ZN    ZN A 407                 O   HOH A 638     1555   1555  1.93  

>  <CISPEP>
   1 TRP A  276    PRO A  277          0         4.38                     
   2 THR A  302    PRO A  303          0        -3.67                     

>  <SITE>
   1 AC1  2 SER A 127  ALA A 215                                          
   1 AC2  2 LYS A 246  GLN A 250                                          
   1 AC3  9 SER A  64  GLN A 120  SER A 212  TYR A 221                    
   2 AC3  9 GLY A 317  ALA A 318  GLY A 320  HOH A 503                    
   3 AC3  9 HOH A 626                                                     
   1 AC4  2 HIS A  13   CL A 408                                          
   1 AC5  1 HIS A 186                                                     
   1 AC6  4 HIS A 186  ASP A 229  HOH A 620  HOH A 638                    
   1 AC7  2 HIS A  13   ZN A 405                                          

>  <ORIGX1>
      1.000000  0.000000  0.000000        0.00000                         

>  <ORIGX2>
      0.000000  1.000000  0.000000        0.00000                         

>  <ORIGX3>
      0.000000  0.000000  1.000000        0.00000                         

>  <SCALE1>
      0.007246  0.000000  0.000000        0.00000                         

>  <SCALE2>
      0.000000  0.007246  0.000000        0.00000                         

>  <SCALE3>
      0.000000  0.000000  0.007246        0.00000                         

>  <ANISOU>
  479  N   SER A  64     4443   3393   3373   -279    579   -350       N  
  480  CA  SER A  64     4450   3381   3352   -197    567   -328       C  
  481  C   SER A  64     4209   3298   3174   -146    486   -316       C  
  482  O   SER A  64     4199   3279   3139    -98    473   -303       O  
  483  CB  SER A  64     4678   3516   3552   -118    643   -267       C  
  484  OG  SER A  64     5231   3875   4019   -149    722   -281       O  
 2746  C02 M9W A 404     5566   4130   4350   -198    782   -274       C  
 2747  C09 M9W A 404     6218   4534   4900   -238    882   -292       C  
 2748  C10 M9W A 404     7240   5490   5912   -345    915   -326       C  
 2749  C12 M9W A 404     9612   7510   8177   -487   1084   -347       C  
 2750  C13 M9W A 404    10060   7770   8579   -390   1194   -257       C  
 2751  C16 M9W A 404    11165   8939   9657   -649   1112   -449       C  
 2752  C17 M9W A 404     9726   7698   8248   -705   1000   -525       C  
 2753  C18 M9W A 404    10696   8146   9052   -637   1229   -466       C  
 2754  C22 M9W A 404     9829   7265   7970  -1158   1161   -877       C  
 2755  C23 M9W A 404    11035   8143   9116   -874   1289   -737       C  
 2756  C24 M9W A 404    10836   7963   8986   -721   1306   -612       C  
 2757  N11 M9W A 404     8144   6131   6711   -404   1020   -353       N  
 2758  N19 M9W A 404    10658   8007   8923   -755   1236   -581       N  
 2759  N20 M9W A 404    10685   8150   8959   -909   1181   -670       N  
 2760  N21 M9W A 404    10574   7906   8740   -985   1209   -764       N  
 2761  O01 M9W A 404     5343   4020   4199   -212    762   -257       O  
 2762  O14 M9W A 404    10366   8128   8937   -369   1216   -188       O  
 2763  O15 M9W A 404     9974   7487   8404   -321   1266   -245       O  
 2764  O26 M9W A 404    13169  10820  11619   -955   1190   -553       O  
 2765  O27 M9W A 404    13682  11301  12189   -733   1250   -369       O  
 2766  S25 M9W A 404    14755  12552  13288   -787   1143   -455       S  

>  <MASTER>
      537    0    8   18   17    0    9    6 2982    1   45   28          

$$$$
