start_structures/Ligand_Substrate/Ligand_Complex_Stripped/MK7_6QW8.pdb
 OpenBabel08222315203D

 96102  0  0  1  0  0  0  0  0999 V2000
   -3.8850   -4.8660   14.8900 N   0  0  0  0  0  0  0  0  0  0  0  0
   -5.1610   -5.0660   15.5710 C   0  0  2  0  0  0  0  0  0  0  0  0
   -5.2970   -6.4630   16.1920 C   0  0  0  0  0  0  0  0  0  0  0  0
   -6.2330   -6.6810   16.9590 O   0  0  0  0  0  0  0  0  0  0  0  0
   -6.3590   -4.8700   14.6520 C   0  0  0  0  0  0  0  0  0  0  0  0
   -6.5830   -3.5070   14.2400 O   0  0  0  0  0  0  0  0  0  0  0  0
   -3.9480   -4.7640   14.0380 H   0  0  0  0  0  0  0  0  0  0  0  0
   -5.2320   -4.4170   16.2890 H   0  0  0  0  0  0  0  0  0  0  0  0
   -6.2230   -5.4090   13.8570 H   0  0  0  0  0  0  0  0  0  0  0  0
   -7.1520   -5.1800   15.1170 H   0  0  0  0  0  0  0  0  0  0  0  0
   -7.9090   -1.1160   10.4630 C   0  0  0  0  0  0  0  0  0  0  0  0
   -7.7780   -0.3780   10.4950 C   0  0  0  0  0  0  0  0  0  0  0  0
   -2.5530    4.0920   10.6620 C   0  0  0  0  0  0  0  0  0  0  0  0
   -2.4000    4.0500   11.4960 C   0  0  0  0  0  0  0  0  0  0  0  0
   -4.9030    4.6440   11.4690 C   0  0  0  0  0  0  0  0  0  0  0  0
   -4.7760    4.6530   11.8880 C   0  0  0  0  0  0  0  0  0  0  0  0
   -7.5420   -1.2440   12.9580 C   0  0  0  0  0  0  0  0  0  0  0  0
   -7.8380   -1.5090   12.7710 C   0  0  0  0  0  0  0  0  0  0  0  0
   -5.9290   -3.0810   13.1500 C   0  0  0  0  0  0  0  0  0  0  0  0
   -6.0220   -3.1820   13.0410 C   0  0  0  0  0  0  0  0  0  0  0  0
   -5.5990   -1.3110   11.5210 C   0  0  1  0  0  0  0  0  0  0  0  0
   -5.6660   -1.3030   11.5150 C   0  0  1  0  0  0  0  0  0  0  0  0
   -6.4170   -1.4810   10.2420 C   0  0  0  0  0  0  0  0  0  0  0  0
   -6.4370   -1.0670   10.2190 C   0  0  0  0  0  0  0  0  0  0  0  0
   -3.0720    2.7190   10.2070 C   0  0  0  0  0  0  0  0  0  0  0  0
   -2.8170    2.6160   11.1050 C   0  0  0  0  0  0  0  0  0  0  0  0
   -5.3500    3.1990   11.1070 C   0  0  0  0  0  0  0  0  0  0  0  0
   -5.2350    3.2100   11.5560 C   0  0  0  0  0  0  0  0  0  0  0  0
   -4.1510    2.2120   11.1690 C   0  0  0  0  0  0  0  0  0  0  0  0
   -4.1130    2.1560   11.8010 C   0  0  0  0  0  0  0  0  0  0  0  0
   -5.2500    0.1420   11.7620 C   0  0  2  0  0  0  0  0  0  0  0  0
   -5.2130    0.0200   12.0520 C   0  0  2  0  0  0  0  0  0  0  0  0
   -8.4730   -1.6670   11.8170 C   0  0  2  0  0  0  0  0  0  0  0  0
   -8.6400   -1.2480   11.4250 C   0  0  2  0  0  0  0  0  0  0  0  0
   -3.6550    5.1100   10.7340 N   0  0  0  0  0  0  0  0  0  0  0  0
   -3.4860    5.0250   11.2010 N   0  0  0  0  0  0  0  0  0  0  0  0
   -4.5290    0.8320   10.8940 N   0  0  0  0  0  0  0  0  0  0  0  0
   -4.5230    0.8880   11.3030 N   0  0  0  0  0  0  0  0  0  0  0  0
   -8.4190   -3.1750   11.7500 N   0  0  0  0  0  0  0  0  0  0  0  0
   -8.8450   -2.5110   10.5890 N   0  0  0  0  0  0  0  0  0  0  0  0
   -6.2900   -1.8920   12.6260 N   0  0  0  0  0  0  0  0  0  0  0  0
   -6.4740   -2.0350   12.4880 N   0  0  0  0  0  0  0  0  0  0  0  0
   -7.9120   -5.5930    9.5770 O   0  5  0  0  0  0  0  0  0  0  0  0
   -7.5810   -4.9100    9.9080 O   0  5  0  0  0  0  0  0  0  0  0  0
   -4.9720   -3.7350   12.6630 O   0  0  0  0  0  0  0  0  0  0  0  0
   -4.9170   -3.6480   12.6550 O   0  0  0  0  0  0  0  0  0  0  0  0
   -5.5810    0.7250   12.8220 O   0  0  0  0  0  0  0  0  0  0  0  0
   -5.4440    0.3260   13.2490 O   0  0  0  0  0  0  0  0  0  0  0  0
   -8.1790   -5.2740   11.9450 O   0  0  0  0  0  0  0  0  0  0  0  0
   -8.8150   -6.1210   11.5740 O   0  0  0  0  0  0  0  0  0  0  0  0
  -10.1280   -5.6630   10.6570 O   0  0  0  0  0  0  0  0  0  0  0  0
   -9.8710   -5.5760    9.5290 O   0  0  0  0  0  0  0  0  0  0  0  0
   -8.9100   -3.6120   10.5450 O   0  0  0  0  0  0  0  0  0  0  0  0
   -9.5400   -3.6040   11.0940 O   0  0  0  0  0  0  0  0  0  0  0  0
   -8.7710   -5.2380   10.6530 S   0  0  2  0  0  0  0  0  0  0  0  0
   -8.8540   -5.2250   10.4420 S   0  0  2  0  0  0  0  0  0  0  0  0
   -8.4380   -1.4640    9.7280 H   0  0  0  0  0  0  0  0  0  0  0  0
   -8.2470   -0.2180    9.6610 H   0  0  0  0  0  0  0  0  0  0  0  0
   -8.0120   -0.1540   10.4000 H   0  0  0  0  0  0  0  0  0  0  0  0
   -7.6200    0.5030   10.8690 H   0  0  0  0  0  0  0  0  0  0  0  0
   -2.1270    4.0080   11.5290 H   0  0  0  0  0  0  0  0  0  0  0  0
   -2.1760    4.0800   12.4390 H   0  0  0  0  0  0  0  0  0  0  0  0
   -1.8320    4.3890   10.0850 H   0  0  0  0  0  0  0  0  0  0  0  0
   -1.5700    4.2950   11.0570 H   0  0  0  0  0  0  0  0  0  0  0  0
   -4.7900    4.7230   12.4290 H   0  0  0  0  0  0  0  0  0  0  0  0
   -4.7090    4.7700   12.8490 H   0  0  0  0  0  0  0  0  0  0  0  0
   -5.6310    5.2580   11.2850 H   0  0  0  0  0  0  0  0  0  0  0  0
   -5.4720    5.2800   11.6350 H   0  0  0  0  0  0  0  0  0  0  0  0
   -7.8880   -1.5570   13.8080 H   0  0  0  0  0  0  0  0  0  0  0  0
   -7.7830   -0.6830   13.2760 H   0  0  0  0  0  0  0  0  0  0  0  0
   -7.5000   -0.2760   12.9960 H   0  0  0  0  0  0  0  0  0  0  0  0
   -8.3630   -2.1080   13.3250 H   0  0  0  0  0  0  0  0  0  0  0  0
   -4.7580   -1.7680   11.3650 H   0  0  0  0  0  0  0  0  0  0  0  0
   -4.8670   -1.7980   11.2760 H   0  0  0  0  0  0  0  0  0  0  0  0
   -6.0760   -0.9260    9.5230 H   0  0  0  0  0  0  0  0  0  0  0  0
   -5.9360   -0.5150    9.5980 H   0  0  0  0  0  0  0  0  0  0  0  0
   -6.3560   -2.3860    9.8970 H   0  0  0  0  0  0  0  0  0  0  0  0
   -6.5930   -1.8950    9.7380 H   0  0  0  0  0  0  0  0  0  0  0  0
   -3.4480    2.7870    9.3150 H   0  0  0  0  0  0  0  0  0  0  0  0
   -2.1070    1.9970   11.3360 H   0  0  0  0  0  0  0  0  0  0  0  0
   -2.3380    2.0890   10.1400 H   0  0  0  0  0  0  0  0  0  0  0  0
   -2.9070    2.5540   10.1410 H   0  0  0  0  0  0  0  0  0  0  0  0
   -6.0350    2.8980   11.7240 H   0  0  0  0  0  0  0  0  0  0  0  0
   -6.0020    2.9760   12.1010 H   0  0  0  0  0  0  0  0  0  0  0  0
   -5.7640    3.1860   10.2300 H   0  0  0  0  0  0  0  0  0  0  0  0
   -5.5500    3.1670   10.6390 H   0  0  0  0  0  0  0  0  0  0  0  0
   -3.7810    2.2600   12.0640 H   0  0  0  0  0  0  0  0  0  0  0  0
   -3.9450    2.0950   12.7540 H   0  0  0  0  0  0  0  0  0  0  0  0
   -9.3700   -1.3270   11.9580 H   0  0  0  0  0  0  0  0  0  0  0  0
   -9.4730   -0.7880   11.6110 H   0  0  0  0  0  0  0  0  0  0  0  0
   -3.8630    5.4020    9.9200 H   0  0  0  0  0  0  0  0  0  0  0  0
   -3.2360    5.8480   11.4300 H   0  0  0  0  0  0  0  0  0  0  0  0
   -4.2560    0.4660   10.1650 H   0  0  0  0  0  0  0  0  0  0  0  0
   -4.3600    0.7060   10.4790 H   0  0  0  0  0  0  0  0  0  0  0  0
   -8.9960   -3.5100   12.3390 H   0  0  0  0  0  0  0  0  0  0  0  0
   -9.3020   -2.3000    9.8550 H   0  0  0  0  0  0  0  0  0  0  0  0
  1  2  1  0  0  0  0
  2  3  1  0  0  0  0
  2  8  1  1  0  0  0
  3  4  2  0  0  0  0
  5 10  1  0  0  0  0
  5  2  1  0  0  0  0
  6 19  1  0  0  0  0
  6 20  1  0  0  0  0
  7  1  1  0  0  0  0
  9  5  1  0  0  0  0
 11 23  1  0  0  0  0
 11 33  1  0  0  0  0
 11 57  1  0  0  0  0
 11 59  1  0  0  0  0
 12 24  1  0  0  0  0
 12 34  1  0  0  0  0
 12 58  1  0  0  0  0
 12 60  1  0  0  0  0
 13 25  1  0  0  0  0
 13 35  1  0  0  0  0
 13 61  1  0  0  0  0
 13 63  1  0  0  0  0
 14 26  1  0  0  0  0
 14 36  1  0  0  0  0
 14 62  1  0  0  0  0
 14 64  1  0  0  0  0
 15 27  1  0  0  0  0
 15 35  1  0  0  0  0
 15 65  1  0  0  0  0
 15 67  1  0  0  0  0
 16 28  1  0  0  0  0
 16 36  1  0  0  0  0
 16 66  1  0  0  0  0
 16 68  1  0  0  0  0
 17 33  1  0  0  0  0
 17 41  1  0  0  0  0
 17 69  1  0  0  0  0
 17 71  1  0  0  0  0
 18 34  1  0  0  0  0
 18 42  1  0  0  0  0
 18 70  1  0  0  0  0
 18 72  1  0  0  0  0
 19 41  1  0  0  0  0
 19 45  2  0  0  0  0
 20 42  1  0  0  0  0
 20 46  2  0  0  0  0
 21 23  1  0  0  0  0
 21 31  1  0  0  0  0
 21 41  1  0  0  0  0
 21 73  1  6  0  0  0
 22 24  1  0  0  0  0
 22 32  1  0  0  0  0
 22 42  1  0  0  0  0
 22 74  1  6  0  0  0
 23 75  1  0  0  0  0
 23 77  1  0  0  0  0
 24 76  1  0  0  0  0
 24 78  1  0  0  0  0
 25 29  1  0  0  0  0
 25 79  1  0  0  0  0
 25 81  1  0  0  0  0
 26 30  1  0  0  0  0
 26 80  1  0  0  0  0
 26 82  1  0  0  0  0
 27 29  1  0  0  0  0
 27 83  1  0  0  0  0
 27 85  1  0  0  0  0
 28 30  1  0  0  0  0
 28 84  1  0  0  0  0
 28 86  1  0  0  0  0
 29 37  1  0  0  0  0
 29 87  1  0  0  0  0
 30 38  1  0  0  0  0
 30 88  1  0  0  0  0
 31 37  1  1  0  0  0
 31 47  1  0  0  0  0
 32 38  1  1  0  0  0
 32 48  1  0  0  0  0
 33 39  1  0  0  0  0
 33 89  1  1  0  0  0
 34 40  1  0  0  0  0
 34 90  1  1  0  0  0
 35 91  1  0  0  0  0
 36 92  1  0  0  0  0
 37 93  1  0  0  0  0
 38 94  1  0  0  0  0
 39 53  1  0  0  0  0
 39 95  1  0  0  0  0
 40 54  1  0  0  0  0
 40 96  1  0  0  0  0
 43 44  1  0  0  0  0
 47 48  1  0  0  0  0
 49 55  1  0  0  0  0
 50 56  1  0  0  0  0
 50 49  1  0  0  0  0
 51 55  1  0  0  0  0
 52 56  1  0  0  0  0
 52 51  1  0  0  0  0
 53 55  1  0  0  0  0
 54 56  1  0  0  0  0
 55 43  1  6  0  0  0
 56 44  1  6  0  0  0
M  CHG  2  43  -1  44  -1
M  END
>  <HEADER>
    ANTIMICROBIAL PROTEIN                   05-MAR-19   6QW8              

>  <TITLE>
    CRYSTAL STRUCTURE OF CTX-M-15 COMPLEXED WITH RELEBACTAM (16 HOUR SOAK)

>  <COMPND>
    MOL_ID: 1;                                                            
   2 MOLECULE: BETA-LACTAMASE;                                            
   3 CHAIN: A;                                                            
   4 EC: 3.5.2.6;                                                         
   5 ENGINEERED: YES                                                      

>  <SOURCE>
    MOL_ID: 1;                                                            
   2 ORGANISM_SCIENTIFIC: KLEBSIELLA PNEUMONIAE;                          
   3 ORGANISM_TAXID: 573;                                                 
   4 GENE: BLACTX-M-15;                                                   
   5 EXPRESSION_SYSTEM: ESCHERICHIA COLI BL21;                            
   6 EXPRESSION_SYSTEM_TAXID: 511693;                                     
   7 EXPRESSION_SYSTEM_STRAIN: SOLU                                       

>  <KEYWDS>
    INHIBITOR, RELEBACTAM, DIAZABICYCLOOCTANE, ANTIBIOTIC RESISTANCE.,    
   2 ANTIMICROBIAL PROTEIN                                                

>  <EXPDTA>
    X-RAY DIFFRACTION                                                     

>  <AUTHOR>
    C.L.TOOKE,P.HINCHLIFFE,J.SPENCER                                      

>  <REVDAT>
   3   02-OCT-19 6QW8    1       JRNL                                     
   2   18-SEP-19 6QW8    1       COMPND SOURCE DBREF  SEQADV              
   1   21-AUG-19 6QW8    0                                                

>  <JRNL>
      AUTH   C.L.TOOKE,P.HINCHLIFFE,P.A.LANG,A.J.MULHOLLAND,J.BREM,       
      AUTH 2 C.J.SCHOFIELD,J.SPENCER                                      
      TITL   MOLECULAR BASIS OF CLASS A BETA-LACTAMASE INHIBITION BY      
      TITL 2 RELEBACTAM.                                                  
      REF    ANTIMICROB.AGENTS CHEMOTHER.  V.  63       2019              
      REFN                   ESSN 1098-6596                               
      PMID   31383664                                                     
      DOI    10.1128/AAC.00564-19                                         

>  <REMARK>
   2                                                                      
   2 RESOLUTION.    1.10 ANGSTROMS.                                       
   3                                                                      
   3 REFINEMENT.                                                          
   3   PROGRAM     : PHENIX (1.12_2829: ???)                              
   3   AUTHORS     : PAUL ADAMS,PAVEL AFONINE,VINCENT CHEN,IAN            
   3               : DAVIS,KRESHNA GOPAL,RALF GROSSE-KUNSTLEVE,           
   3               : LI-WEI HUNG,ROBERT IMMORMINO,TOM IOERGER,            
   3               : AIRLIE MCCOY,ERIK MCKEE,NIGEL MORIARTY,              
   3               : REETAL PAI,RANDY READ,JANE RICHARDSON,               
   3               : DAVID RICHARDSON,TOD ROMO,JIM SACCHETTINI,           
   3               : NICHOLAS SAUTER,JACOB SMITH,LAURENT                  
   3               : STORONI,TOM TERWILLIGER,PETER ZWART                  
   3                                                                      
   3    REFINEMENT TARGET : NULL                                          
   3                                                                      
   3  DATA USED IN REFINEMENT.                                            
   3   RESOLUTION RANGE HIGH (ANGSTROMS) : 1.10                           
   3   RESOLUTION RANGE LOW  (ANGSTROMS) : 42.50                          
   3   MIN(FOBS/SIGMA_FOBS)              : 1.510                          
   3   COMPLETENESS FOR RANGE        (%) : 99.6                           
   3   NUMBER OF REFLECTIONS             : 97784                          
   3                                                                      
   3  FIT TO DATA USED IN REFINEMENT.                                     
   3   R VALUE     (WORKING + TEST SET) : 0.116                           
   3   R VALUE            (WORKING SET) : 0.115                           
   3   FREE R VALUE                     : 0.131                           
   3   FREE R VALUE TEST SET SIZE   (%) : 5.170                           
   3   FREE R VALUE TEST SET COUNT      : 5057                            
   3                                                                      
   3  FIT TO DATA USED IN REFINEMENT (IN BINS).                           
   3   BIN  RESOLUTION RANGE  COMPL.    NWORK NFREE   RWORK  RFREE        
   3     1 42.5322 -  3.4174    1.00     3346   196  0.1479 0.1595        
   3     2  3.4174 -  2.7126    1.00     3227   164  0.1349 0.1482        
   3     3  2.7126 -  2.3698    1.00     3137   203  0.1159 0.1302        
   3     4  2.3698 -  2.1531    1.00     3182   148  0.1101 0.1270        
   3     5  2.1531 -  1.9988    1.00     3128   156  0.1004 0.1195        
   3     6  1.9988 -  1.8809    1.00     3138   165  0.1014 0.1158        
   3     7  1.8809 -  1.7867    1.00     3106   181  0.1055 0.1196        
   3     8  1.7867 -  1.7090    1.00     3098   188  0.1006 0.1114        
   3     9  1.7090 -  1.6432    1.00     3148   125  0.0993 0.1204        
   3    10  1.6432 -  1.5865    1.00     3130   142  0.0928 0.1141        
   3    11  1.5865 -  1.5369    1.00     3074   176  0.0933 0.1120        
   3    12  1.5369 -  1.4929    1.00     3113   173  0.0946 0.1307        
   3    13  1.4929 -  1.4536    1.00     3104   161  0.0955 0.1254        
   3    14  1.4536 -  1.4182    1.00     3072   176  0.0959 0.1083        
   3    15  1.4182 -  1.3859    1.00     3071   171  0.0989 0.1241        
   3    16  1.3859 -  1.3564    1.00     3085   145  0.1069 0.1279        
   3    17  1.3564 -  1.3293    1.00     3108   169  0.1071 0.1415        
   3    18  1.3293 -  1.3042    1.00     3059   179  0.1084 0.1146        
   3    19  1.3042 -  1.2809    1.00     3096   170  0.1069 0.1222        
   3    20  1.2809 -  1.2592    1.00     3061   191  0.1064 0.1277        
   3    21  1.2592 -  1.2389    1.00     3067   135  0.1076 0.1221        
   3    22  1.2389 -  1.2198    1.00     3088   168  0.1096 0.1294        
   3    23  1.2198 -  1.2019    1.00     3038   173  0.1099 0.1270        
   3    24  1.2019 -  1.1849    1.00     3073   195  0.1172 0.1294        
   3    25  1.1849 -  1.1689    1.00     3068   147  0.1172 0.1222        
   3    26  1.1689 -  1.1538    1.00     3057   195  0.1188 0.1350        
   3    27  1.1538 -  1.1393    0.99     3016   162  0.1224 0.1318        
   3    28  1.1393 -  1.1256    0.99     3050   171  0.1304 0.1402        
   3    29  1.1256 -  1.1125    0.97     2932   172  0.1319 0.1393        
   3    30  1.1125 -  1.1000    0.93     2855   160  0.1389 0.1526        
   3                                                                      
   3  BULK SOLVENT MODELLING.                                             
   3   METHOD USED        : NULL                                          
   3   SOLVENT RADIUS     : 1.11                                          
   3   SHRINKAGE RADIUS   : 0.90                                          
   3   K_SOL              : NULL                                          
   3   B_SOL              : NULL                                          
   3                                                                      
   3  ERROR ESTIMATES.                                                    
   3   COORDINATE ERROR (MAXIMUM-LIKELIHOOD BASED)     : 0.060            
   3   PHASE ERROR (DEGREES, MAXIMUM-LIKELIHOOD BASED) : 9.780            
   3                                                                      
   3  B VALUES.                                                           
   3   FROM WILSON PLOT           (A**2) : NULL                           
   3   MEAN B VALUE      (OVERALL, A**2) : NULL                           
   3   OVERALL ANISOTROPIC B VALUE.                                       
   3    B11 (A**2) : NULL                                                 
   3    B22 (A**2) : NULL                                                 
   3    B33 (A**2) : NULL                                                 
   3    B12 (A**2) : NULL                                                 
   3    B13 (A**2) : NULL                                                 
   3    B23 (A**2) : NULL                                                 
   3                                                                      
   3  TWINNING INFORMATION.                                               
   3   FRACTION: NULL                                                     
   3   OPERATOR: NULL                                                     
   3                                                                      
   3  DEVIATIONS FROM IDEAL VALUES.                                       
   3                 RMSD          COUNT                                  
   3   BOND      :  0.014           2124                                  
   3   ANGLE     :  1.461           2890                                  
   3   CHIRALITY :  0.097            331                                  
   3   PLANARITY :  0.021            376                                  
   3   DIHEDRAL  : 20.990            805                                  
   3                                                                      
   3  TLS DETAILS                                                         
   3   NUMBER OF TLS GROUPS  : NULL                                       
   3                                                                      
   3  NCS DETAILS                                                         
   3   NUMBER OF NCS GROUPS : NULL                                        
   3                                                                      
   3  OTHER REFINEMENT REMARKS: NULL                                      
   4                                                                      
   4 6QW8 COMPLIES WITH FORMAT V. 3.30, 13-JUL-11                         
 100                                                                      
 100 THIS ENTRY HAS BEEN PROCESSED BY PDBE ON 06-MAR-19.                  
 100 THE DEPOSITION ID IS D_1292101030.                                   
 200                                                                      
 200 EXPERIMENTAL DETAILS                                                 
 200  EXPERIMENT TYPE                : X-RAY DIFFRACTION                  
 200  DATE OF DATA COLLECTION        : 06-MAY-18                          
 200  TEMPERATURE           (KELVIN) : 100                                
 200  PH                             : NULL                               
 200  NUMBER OF CRYSTALS USED        : 1                                  
 200                                                                      
 200  SYNCHROTRON              (Y/N) : Y                                  
 200  RADIATION SOURCE               : DIAMOND                            
 200  BEAMLINE                       : I03                                
 200  X-RAY GENERATOR MODEL          : NULL                               
 200  MONOCHROMATIC OR LAUE    (M/L) : M                                  
 200  WAVELENGTH OR RANGE        (A) : 0.98                               
 200  MONOCHROMATOR                  : NULL                               
 200  OPTICS                         : NULL                               
 200                                                                      
 200  DETECTOR TYPE                  : PIXEL                              
 200  DETECTOR MANUFACTURER          : DECTRIS PILATUS3 6M                
 200  INTENSITY-INTEGRATION SOFTWARE : DIALS                              
 200  DATA SCALING SOFTWARE          : AIMLESS                            
 200                                                                      
 200  NUMBER OF UNIQUE REFLECTIONS   : 97874                              
 200  RESOLUTION RANGE HIGH      (A) : 1.100                              
 200  RESOLUTION RANGE LOW       (A) : 44.540                             
 200  REJECTION CRITERIA  (SIGMA(I)) : NULL                               
 200                                                                      
 200 OVERALL.                                                             
 200  COMPLETENESS FOR RANGE     (%) : 99.7                               
 200  DATA REDUNDANCY                : 11.90                              
 200  R MERGE                    (I) : NULL                               
 200  R SYM                      (I) : NULL                               
 200  <I/SIGMA(I)> FOR THE DATA SET  : 19.3000                            
 200                                                                      
 200 IN THE HIGHEST RESOLUTION SHELL.                                     
 200  HIGHEST RESOLUTION SHELL, RANGE HIGH (A) : 1.10                     
 200  HIGHEST RESOLUTION SHELL, RANGE LOW  (A) : 1.12                     
 200  COMPLETENESS FOR SHELL     (%) : NULL                               
 200  DATA REDUNDANCY IN SHELL       : NULL                               
 200  R MERGE FOR SHELL          (I) : NULL                               
 200  R SYM FOR SHELL            (I) : NULL                               
 200  <I/SIGMA(I)> FOR SHELL         : 5.900                              
 200                                                                      
 200 DIFFRACTION PROTOCOL: SINGLE WAVELENGTH                              
 200 METHOD USED TO DETERMINE THE STRUCTURE: MOLECULAR REPLACEMENT        
 200 SOFTWARE USED: PHASER                                                
 200 STARTING MODEL: 4HBT                                                 
 200                                                                      
 200 REMARK: NULL                                                         
 280                                                                      
 280 CRYSTAL                                                              
 280 SOLVENT CONTENT, VS   (%): 41.83                                     
 280 MATTHEWS COEFFICIENT, VM (ANGSTROMS**3/DA): 2.11                     
 280                                                                      
 280 CRYSTALLIZATION CONDITIONS: 2.0 M AMMONIUM SULPHATE, 0.1 M TRIS      
 280  8.0, VAPOR DIFFUSION, SITTING DROP, TEMPERATURE 294.15K             
 290                                                                      
 290 CRYSTALLOGRAPHIC SYMMETRY                                            
 290 SYMMETRY OPERATORS FOR SPACE GROUP: P 21 21 21                       
 290                                                                      
 290      SYMOP   SYMMETRY                                                
 290     NNNMMM   OPERATOR                                                
 290       1555   X,Y,Z                                                   
 290       2555   -X+1/2,-Y,Z+1/2                                         
 290       3555   -X,Y+1/2,-Z+1/2                                         
 290       4555   X+1/2,-Y+1/2,-Z                                         
 290                                                                      
 290     WHERE NNN -> OPERATOR NUMBER                                     
 290           MMM -> TRANSLATION VECTOR                                  
 290                                                                      
 290 CRYSTALLOGRAPHIC SYMMETRY TRANSFORMATIONS                            
 290 THE FOLLOWING TRANSFORMATIONS OPERATE ON THE ATOM/HETATM             
 290 RECORDS IN THIS ENTRY TO PRODUCE CRYSTALLOGRAPHICALLY                
 290 RELATED MOLECULES.                                                   
 290   SMTRY1   1  1.000000  0.000000  0.000000        0.00000            
 290   SMTRY2   1  0.000000  1.000000  0.000000        0.00000            
 290   SMTRY3   1  0.000000  0.000000  1.000000        0.00000            
 290   SMTRY1   2 -1.000000  0.000000  0.000000       22.26900            
 290   SMTRY2   2  0.000000 -1.000000  0.000000        0.00000            
 290   SMTRY3   2  0.000000  0.000000  1.000000       58.95750            
 290   SMTRY1   3 -1.000000  0.000000  0.000000        0.00000            
 290   SMTRY2   3  0.000000  1.000000  0.000000       22.78150            
 290   SMTRY3   3  0.000000  0.000000 -1.000000       58.95750            
 290   SMTRY1   4  1.000000  0.000000  0.000000       22.26900            
 290   SMTRY2   4  0.000000 -1.000000  0.000000       22.78150            
 290   SMTRY3   4  0.000000  0.000000 -1.000000        0.00000            
 290                                                                      
 290 REMARK: NULL                                                         
 300                                                                      
 300 BIOMOLECULE: 1                                                       
 300 SEE REMARK 350 FOR THE AUTHOR PROVIDED AND/OR PROGRAM                
 300 GENERATED ASSEMBLY INFORMATION FOR THE STRUCTURE IN                  
 300 THIS ENTRY. THE REMARK MAY ALSO PROVIDE INFORMATION ON               
 300 BURIED SURFACE AREA.                                                 
 350                                                                      
 350 COORDINATES FOR A COMPLETE MULTIMER REPRESENTING THE KNOWN           
 350 BIOLOGICALLY SIGNIFICANT OLIGOMERIZATION STATE OF THE                
 350 MOLECULE CAN BE GENERATED BY APPLYING BIOMT TRANSFORMATIONS          
 350 GIVEN BELOW.  BOTH NON-CRYSTALLOGRAPHIC AND                          
 350 CRYSTALLOGRAPHIC OPERATIONS ARE GIVEN.                               
 350                                                                      
 350 BIOMOLECULE: 1                                                       
 350 SOFTWARE DETERMINED QUATERNARY STRUCTURE: MONOMERIC                  
 350 SOFTWARE USED: PISA                                                  
 350 TOTAL BURIED SURFACE AREA: 330 ANGSTROM**2                           
 350 SURFACE AREA OF THE COMPLEX: 11270 ANGSTROM**2                       
 350 CHANGE IN SOLVENT FREE ENERGY: -8.0 KCAL/MOL                         
 350 APPLY THE FOLLOWING TO CHAINS: A                                     
 350   BIOMT1   1  1.000000  0.000000  0.000000        0.00000            
 350   BIOMT2   1  0.000000  1.000000  0.000000        0.00000            
 350   BIOMT3   1  0.000000  0.000000  1.000000        0.00000            
 465                                                                      
 465 MISSING RESIDUES                                                     
 465 THE FOLLOWING RESIDUES WERE NOT LOCATED IN THE                       
 465 EXPERIMENT. (M=MODEL NUMBER; RES=RESIDUE NAME; C=CHAIN               
 465 IDENTIFIER; SSSEQ=SEQUENCE NUMBER; I=INSERTION CODE.)                
 465                                                                      
 465   M RES C SSSEQI                                                     
 465     GLY A    24                                                      
 465     PRO A    25                                                      
 465     GLN A    26                                                      
 465     THR A    27                                                      
 500                                                                      
 500 GEOMETRY AND STEREOCHEMISTRY                                         
 500 SUBTOPIC: CLOSE CONTACTS IN SAME ASYMMETRIC UNIT                     
 500                                                                      
 500 THE FOLLOWING ATOMS ARE IN CLOSE CONTACT.                            
 500                                                                      
 500  ATM1  RES C  SSEQI   ATM2  RES C  SSEQI           DISTANCE          
 500   OG1  THR A   216     O    HOH A   401              2.06            
 500   OE1  GLN A   154     O    HOH A   402              2.06            
 500   O    HOH A   414     O    HOH A   427              2.08            
 500   O2   SO4 A   302     O    HOH A   403              2.08            
 500   O    HOH A   429     O    HOH A   640              2.08            
 500   O    HOH A   424     O    HOH A   695              2.10            
 500   O    HOH A   485     O    HOH A   618              2.11            
 500   O    HOH A   606     O    HOH A   616              2.11            
 500   O    HOH A   466     O    HOH A   643              2.13            
 500   O    HOH A   415     O    HOH A   618              2.13            
 500   O    HOH A   560     O    HOH A   651              2.15            
 500   O    HOH A   503     O    HOH A   654              2.15            
 500   OD1  ASN A   104     O    HOH A   404              2.16            
 500                                                                      
 500 REMARK: NULL                                                         
 500                                                                      
 500 GEOMETRY AND STEREOCHEMISTRY                                         
 500 SUBTOPIC: CLOSE CONTACTS                                             
 500                                                                      
 500 THE FOLLOWING ATOMS THAT ARE RELATED BY CRYSTALLOGRAPHIC             
 500 SYMMETRY ARE IN CLOSE CONTACT.  AN ATOM LOCATED WITHIN 0.15          
 500 ANGSTROMS OF A SYMMETRY RELATED ATOM IS ASSUMED TO BE ON A           
 500 SPECIAL POSITION AND IS, THEREFORE, LISTED IN REMARK 375             
 500 INSTEAD OF REMARK 500.  ATOMS WITH NON-BLANK ALTERNATE               
 500 LOCATION INDICATORS ARE NOT INCLUDED IN THE CALCULATIONS.            
 500                                                                      
 500 DISTANCE CUTOFF:                                                     
 500 2.2 ANGSTROMS FOR CONTACTS NOT INVOLVING HYDROGEN ATOMS              
 500 1.6 ANGSTROMS FOR CONTACTS INVOLVING HYDROGEN ATOMS                  
 500                                                                      
 500  ATM1  RES C  SSEQI   ATM2  RES C  SSEQI  SSYMOP   DISTANCE          
 500   HG3  GLU A    96     O4   SO4 A   302     3555     1.59            
 500   O    HOH A   427     O    HOH A   752     3545     2.08            
 500   O    HOH A   429     O    HOH A   505     1545     2.12            
 500                                                                      
 500 REMARK: NULL                                                         
 500                                                                      
 500 GEOMETRY AND STEREOCHEMISTRY                                         
 500 SUBTOPIC: COVALENT BOND LENGTHS                                      
 500                                                                      
 500 THE STEREOCHEMICAL PARAMETERS OF THE FOLLOWING RESIDUES              
 500 HAVE VALUES WHICH DEVIATE FROM EXPECTED VALUES BY MORE               
 500 THAN 6*RMSD (M=MODEL NUMBER; RES=RESIDUE NAME; C=CHAIN               
 500 IDENTIFIER; SSEQ=SEQUENCE NUMBER; I=INSERTION CODE).                 
 500                                                                      
 500 STANDARD TABLE:                                                      
 500 FORMAT: (10X,I3,1X,2(A3,1X,A1,I4,A1,1X,A4,3X),1X,F6.3)               
 500                                                                      
 500 EXPECTED VALUES PROTEIN: ENGH AND HUBER, 1999                        
 500 EXPECTED VALUES NUCLEIC ACID: CLOWNEY ET AL 1996                     
 500                                                                      
 500  M RES CSSEQI ATM1   RES CSSEQI ATM2   DEVIATION                     
 500    GLU A  36   CD    GLU A  36   OE1     0.189                       
 500    GLU A  36   CD    GLU A  36   OE2     0.176                       
 500    GLU A 158   CD    GLU A 158   OE2     0.105                       
 500                                                                      
 500 REMARK: NULL                                                         
 500                                                                      
 500 GEOMETRY AND STEREOCHEMISTRY                                         
 500 SUBTOPIC: COVALENT BOND ANGLES                                       
 500                                                                      
 500 THE STEREOCHEMICAL PARAMETERS OF THE FOLLOWING RESIDUES              
 500 HAVE VALUES WHICH DEVIATE FROM EXPECTED VALUES BY MORE               
 500 THAN 6*RMSD (M=MODEL NUMBER; RES=RESIDUE NAME; C=CHAIN               
 500 IDENTIFIER; SSEQ=SEQUENCE NUMBER; I=INSERTION CODE).                 
 500                                                                      
 500 STANDARD TABLE:                                                      
 500 FORMAT: (10X,I3,1X,A3,1X,A1,I4,A1,3(1X,A4,2X),12X,F5.1)              
 500                                                                      
 500 EXPECTED VALUES PROTEIN: ENGH AND HUBER, 1999                        
 500 EXPECTED VALUES NUCLEIC ACID: CLOWNEY ET AL 1996                     
 500                                                                      
 500  M RES CSSEQI ATM1   ATM2   ATM3                                     
 500    GLU A  36   OE1 -  CD  -  OE2 ANGL. DEV. =   7.8 DEGREES          
 500    ARG A 191   CG  -  CD  -  NE  ANGL. DEV. =  17.2 DEGREES          
 500                                                                      
 500 REMARK: NULL                                                         
 500                                                                      
 500 GEOMETRY AND STEREOCHEMISTRY                                         
 500 SUBTOPIC: TORSION ANGLES                                             
 500                                                                      
 500 TORSION ANGLES OUTSIDE THE EXPECTED RAMACHANDRAN REGIONS:            
 500 (M=MODEL NUMBER; RES=RESIDUE NAME; C=CHAIN IDENTIFIER;               
 500 SSEQ=SEQUENCE NUMBER; I=INSERTION CODE).                             
 500                                                                      
 500 STANDARD TABLE:                                                      
 500 FORMAT:(10X,I3,1X,A3,1X,A1,I4,A1,4X,F7.2,3X,F7.2)                    
 500                                                                      
 500 EXPECTED VALUES: GJ KLEYWEGT AND TA JONES (1996). PHI/PSI-           
 500 CHOLOGY: RAMACHANDRAN REVISITED. STRUCTURE 4, 1395 - 1400            
 500                                                                      
 500  M RES CSSEQI        PSI       PHI                                   
 500    CYS A  69     -138.72     52.30                                   
 500    VAL A 103     -144.07   -124.68                                   
 500    SER A 220     -123.84   -103.41                                   
 500                                                                      
 500 REMARK: NULL                                                         
 500                                                                      
 500 GEOMETRY AND STEREOCHEMISTRY                                         
 500 SUBTOPIC: PLANAR GROUPS                                              
 500                                                                      
 500 PLANAR GROUPS IN THE FOLLOWING RESIDUES HAVE A TOTAL                 
 500 RMS DISTANCE OF ALL ATOMS FROM THE BEST-FIT PLANE                    
 500 BY MORE THAN AN EXPECTED VALUE OF 6*RMSD, WITH AN                    
 500 RMSD 0.02 ANGSTROMS, OR AT LEAST ONE ATOM HAS                        
 500 AN RMSD GREATER THAN THIS VALUE                                      
 500 (M=MODEL NUMBER; RES=RESIDUE NAME; C=CHAIN IDENTIFIER;               
 500 SSEQ=SEQUENCE NUMBER; I=INSERTION CODE).                             
 500                                                                      
 500  M RES CSSEQI        RMS     TYPE                                    
 500    ARG A  39         0.12    SIDE CHAIN                              
 500    ARG A 191         0.24    SIDE CHAIN                              
 500    ARG A 204         0.09    SIDE CHAIN                              
 500    TYR A 262         0.08    SIDE CHAIN                              
 500    ARG A 274         0.10    SIDE CHAIN                              
 500                                                                      
 500 REMARK: NULL                                                         
 525                                                                      
 525 SOLVENT                                                              
 525                                                                      
 525 THE SOLVENT MOLECULES HAVE CHAIN IDENTIFIERS THAT                    
 525 INDICATE THE POLYMER CHAIN WITH WHICH THEY ARE MOST                  
 525 CLOSELY ASSOCIATED. THE REMARK LISTS ALL THE SOLVENT                 
 525 MOLECULES WHICH ARE MORE THAN 5A AWAY FROM THE                       
 525 NEAREST POLYMER CHAIN (M = MODEL NUMBER;                             
 525 RES=RESIDUE NAME; C=CHAIN IDENTIFIER; SSEQ=SEQUENCE                  
 525 NUMBER; I=INSERTION CODE):                                           
 525                                                                      
 525  M RES CSSEQI                                                        
 525    HOH A 766        DISTANCE =  6.88 ANGSTROMS                       
 525    HOH A 767        DISTANCE =  7.04 ANGSTROMS                       
 525    HOH A 768        DISTANCE =  8.86 ANGSTROMS                       
 800                                                                      
 800 SITE                                                                 
 800 SITE_IDENTIFIER: AC1                                                 
 800 EVIDENCE_CODE: SOFTWARE                                              
 800 SITE_DESCRIPTION: binding site for residue MK7 A 301                 
 800                                                                      
 800 SITE_IDENTIFIER: AC2                                                 
 800 EVIDENCE_CODE: SOFTWARE                                              
 800 SITE_DESCRIPTION: binding site for residue SO4 A 302                 
 800                                                                      
 800 SITE_IDENTIFIER: AC3                                                 
 800 EVIDENCE_CODE: SOFTWARE                                              
 800 SITE_DESCRIPTION: binding site for residue SO4 A 303                 
 800                                                                      
 800 SITE_IDENTIFIER: AC4                                                 
 800 EVIDENCE_CODE: SOFTWARE                                              
 800 SITE_DESCRIPTION: binding site for residue SO4 A 304                 
 800                                                                      
 800 SITE_IDENTIFIER: AC5                                                 
 800 EVIDENCE_CODE: SOFTWARE                                              
 800 SITE_DESCRIPTION: binding site for residue GOL A 305                 

>  <DBREF>
 6QW8 A   26   288  UNP    G3G192   G3G192_KLEPN    49    311             

>  <SEQADV>
 6QW8 GLY A   24  UNP  G3G192              EXPRESSION TAG                 
 6QW8 PRO A   25  UNP  G3G192              EXPRESSION TAG                 

>  <SEQRES>
   1 A  265  GLY PRO GLN THR ALA ASP VAL GLN GLN LYS LEU ALA GLU          
   2 A  265  LEU GLU ARG GLN SER GLY GLY ARG LEU GLY VAL ALA LEU          
   3 A  265  ILE ASN THR ALA ASP ASN SER GLN ILE LEU TYR ARG ALA          
   4 A  265  ASP GLU ARG PHE ALA MET CYS SER THR SER LYS VAL MET          
   5 A  265  ALA ALA ALA ALA VAL LEU LYS LYS SER GLU SER GLU PRO          
   6 A  265  ASN LEU LEU ASN GLN ARG VAL GLU ILE LYS LYS SER ASP          
   7 A  265  LEU VAL ASN TYR ASN PRO ILE ALA GLU LYS HIS VAL ASN          
   8 A  265  GLY THR MET SER LEU ALA GLU LEU SER ALA ALA ALA LEU          
   9 A  265  GLN TYR SER ASP ASN VAL ALA MET ASN LYS LEU ILE ALA          
  10 A  265  HIS VAL GLY GLY PRO ALA SER VAL THR ALA PHE ALA ARG          
  11 A  265  GLN LEU GLY ASP GLU THR PHE ARG LEU ASP ARG THR GLU          
  12 A  265  PRO THR LEU ASN THR ALA ILE PRO GLY ASP PRO ARG ASP          
  13 A  265  THR THR SER PRO ARG ALA MET ALA GLN THR LEU ARG ASN          
  14 A  265  LEU THR LEU GLY LYS ALA LEU GLY ASP SER GLN ARG ALA          
  15 A  265  GLN LEU VAL THR TRP MET LYS GLY ASN THR THR GLY ALA          
  16 A  265  ALA SER ILE GLN ALA GLY LEU PRO ALA SER TRP VAL VAL          
  17 A  265  GLY ASP LYS THR GLY SER GLY GLY TYR GLY THR THR ASN          
  18 A  265  ASP ILE ALA VAL ILE TRP PRO LYS ASP ARG ALA PRO LEU          
  19 A  265  ILE LEU VAL THR TYR PHE THR GLN PRO GLN PRO LYS ALA          
  20 A  265  GLU SER ARG ARG ASP VAL LEU ALA SER ALA ALA LYS ILE          
  21 A  265  VAL THR ASP GLY LEU                                          

>  <HET>
 MK7  A 301      86                                                       
 SO4  A 302       5                                                       
 SO4  A 303       5                                                       
 SO4  A 304       5                                                       
 GOL  A 305      14                                                       

>  <HETNAM>
     MK7 (2S,5R)-1-FORMYL-N-(PIPERIDIN-4-YL)-5-[(SULFOOXY)                
   2 MK7  AMINO]PIPERIDINE-2-CARBOXAMIDE                                  
     SO4 SULFATE ION                                                      
     GOL GLYCEROL                                                         

>  <HETSYN>
     MK7 MK-7655, BOUND FORM                                              
     GOL GLYCERIN; PROPANE-1,2,3-TRIOL                                    

>  <FORMUL>
   2  MK7    C12 H22 N4 O6 S                                              
   3  SO4    3(O4 S 2-)                                                   
   6  GOL    C3 H8 O3                                                     
   7  HOH   *368(H2 O)                                                    

>  <HELIX>
   1 AA1 ALA A   28  GLY A   42  1                                  15    
   2 AA2 CYS A   69  THR A   71  5                                   3    
   3 AA3 SER A   72  GLU A   85  1                                  14    
   4 AA4 LYS A   98  LEU A  102  5                                   5    
   5 AA5 ILE A  108  VAL A  113  5                                   6    
   6 AA6 LEU A  119  TYR A  129  1                                  11    
   7 AA7 ASP A  131  VAL A  142  1                                  12    
   8 AA8 GLY A  144  LEU A  155  1                                  12    
   9 AA9 PRO A  167  THR A  171  5                                   5    
  10 AB1 SER A  182  LEU A  195  1                                  14    
  11 AB2 GLY A  200  GLY A  213  1                                  14    
  12 AB3 SER A  220  LEU A  225  5                                   6    
  13 AB4 ARG A  273  ASP A  286  1                                  14    

>  <SHEET>
   1 AA1 5 SER A  56  TYR A  60  0                                        
   2 AA1 5 ARG A  44  ASN A  51 -1  N  ASN A  51   O  SER A  56           
   3 AA1 5 LEU A 257  THR A 264 -1  O  TYR A 262   N  GLY A  46           
   4 AA1 5 THR A 242  TRP A 250 -1  N  ASP A 245   O  THR A 261           
   5 AA1 5 VAL A 230  GLY A 238 -1  N  VAL A 230   O  TRP A 250           
   1 AA2 2 PHE A  66  ALA A  67  0                                        
   2 AA2 2 THR A 180  THR A 181 -1  O  THR A 181   N  PHE A  66           
   1 AA3 2 ARG A  94  GLU A  96  0                                        
   2 AA3 2 THR A 116  SER A 118 -1  O  MET A 117   N  VAL A  95           

>  <LINK>
       OG  SER A  70                 C8 AMK7 A 301     1555   1555  1.34  
       OG  SER A  70                 C8 BMK7 A 301     1555   1555  1.36  

>  <CISPEP>
   1 GLU A  166    PRO A  167          0         6.70                     

>  <SITE>
   1 AC1 20 ARG A  39  CYS A  69  SER A  70  ASN A 104                    
   2 AC1 20 TYR A 105  SER A 130  ASN A 132  ASN A 170                    
   3 AC1 20 THR A 216  LYS A 234  THR A 235  GLY A 236                    
   4 AC1 20 SER A 237  HOH A 404  HOH A 425  HOH A 428                    
   5 AC1 20 HOH A 438  HOH A 444  HOH A 514  HOH A 610                    
   1 AC2  9 VAL A  95  GLU A  96  HOH A 403  HOH A 410                    
   2 AC2  9 HOH A 412  HOH A 420  HOH A 421  HOH A 570                    
   3 AC2  9 HOH A 585                                                     
   1 AC3  2 ARG A  61  HOH A 691                                          
   1 AC4  9 ARG A 153  LYS A 197  HOH A 439  HOH A 509                    
   2 AC4  9 HOH A 518  HOH A 533  HOH A 589  HOH A 591                    
   3 AC4  9 HOH A 758                                                     
   1 AC5  4 ARG A  39  GLU A 271  SER A 272  ARG A 274                    

>  <ORIGX1>
      1.000000  0.000000  0.000000        0.00000                         

>  <ORIGX2>
      0.000000  1.000000  0.000000        0.00000                         

>  <ORIGX3>
      0.000000  0.000000  1.000000        0.00000                         

>  <SCALE1>
      0.022453  0.000000  0.000000        0.00000                         

>  <SCALE2>
      0.000000  0.021948  0.000000        0.00000                         

>  <SCALE3>
      0.000000  0.000000  0.008481        0.00000                         

>  <ANISOU>
  681  N   SER A  70      270    905    860   -111    103    -19       N  
  682  CA  SER A  70      276    925    881   -119     61    -76       C  
  683  C   SER A  70      281    977    784   -124     18   -101       C  
  684  O   SER A  70      275   1006    850    -96     64    -27       O  
  685  CB  SER A  70      339    847    961    -47    175     35       C  
  686  OG  SER A  70      556   1065   1176     54    244     82       O  
 4085  C4 AMK7 A 301      584   1659   1107     46     49   -116       C  
 4086  C4 BMK7 A 301     1172   2113   1897    -96   -477     95       C  
 4087  C5 AMK7 A 301     3692   2913   6290  -1253   -410   1254       C  
 4088  C5 BMK7 A 301     2345   3026   3051  -1425     28    716       C  
 4089  C6 AMK7 A 301     4023   3675   5399    230   -693   1889       C  
 4090  C6 BMK7 A 301     2629   3373   3341  -1088   -593    373       C  
 4091  C7 AMK7 A 301      431   1578   1332     78    105     90       C  
 4092  C7 BMK7 A 301      493    936   1684     74    104    232       C  
 4093  C8 AMK7 A 301      336   1186   1010    -40      8     33       C  
 4094  C8 BMK7 A 301      558   1063   1302    109    275    215       C  
 4095  C10AMK7 A 301      551   1335   1158     51    390      1       C  
 4096  C10BMK7 A 301      518   1180   1620    140    155    160       C  
 4097  C1 AMK7 A 301      650   1860   1063     19    255   -135       C  
 4098  C1 BMK7 A 301     1382   1943   1685    -25   -278   -160       C  
 4099  C2 AMK7 A 301     3335   3687   5654  -1816   -373    657       C  
 4100  C2 BMK7 A 301     1830   2920   2363  -1051   -712    866       C  
 4101  C3 AMK7 A 301     4165   3832   4668   -571  -1071   1713       C  
 4102  C3 BMK7 A 301     2795   2979   2870  -1475  -1015   1009       C  
 4103  C9 AMK7 A 301     3630   2338   4259  -1206   -617   1003       C  
 4104  C9 BMK7 A 301     2034   2718   2197  -1201   -717    685       C  
 4105  C11AMK7 A 301      814   1779   1828     13    264   -115       C  
 4106  C11BMK7 A 301      616   1826   1678   -228     24     99       C  
 4107  C12AMK7 A 301      415   1440   1311    -26    214    -19       C  
 4108  C12BMK7 A 301     1329   2328   1985    -44   -361    214       C  
 4109  N13AMK7 A 301     3185   3609   5985   -719  -1144   2143       N  
 4110  N13BMK7 A 301     2369   3746   3631  -1046   -216    610       N  
 4111  N14AMK7 A 301     2174   2390   2589  -1103    405    342       N  
 4112  N14BMK7 A 301     1586   2445   1698   -561   -177    724       N  
 4113  N15AMK7 A 301      981   1883   1558    -71    329    -99       N  
 4114  N15BMK7 A 301     1474   2406   2326   -388   -931    122       N  
 4115  N16AMK7 A 301      588   1510   1133     45    346    179       N  
 4116  N16BMK7 A 301      730   1365   1596    331    362    417       N  
 4117  O17AMK7 A 301     3402   6215   3203    340   1269   -413       O1-
 4118  O17BMK7 A 301     2177   2405   2075   -781   -735    329       O1-
 4119  O18AMK7 A 301      341   1119    977   -179     -1   -106       O  
 4120  O18BMK7 A 301      578   1148   1013    299    227    -41       O  
 4121  O19AMK7 A 301     1224   2859   2469   -338    349  -1556       O  
 4122  O19BMK7 A 301     1002   1832   1844    -12    -47     -3       O  
 4123  O20AMK7 A 301      966   2813   2338    248   -428    465       O  
 4124  O20BMK7 A 301     2115    821   2220     -7  -1103     42       O  
 4125  O21AMK7 A 301     2575   4564   4850   -328  -1737   -503       O  
 4126  O21BMK7 A 301     2091   2661   1820   -101   -624    884       O  
 4127  O22AMK7 A 301     2538   1562   2129   1014   -366   -373       O  
 4128  O22BMK7 A 301     1141   3455   2194   -446   -481    -14       O  
 4129  S23AMK7 A 301     2597   1566   3138      9   -926    378       S  
 4130  S23BMK7 A 301     1819   2223   1972    150   -447    237       S  

>  <MASTER>
      391    0    5   13    9    0   13    6 2369    1  116   21          

$$$$
