start_structures/Ligand_Substrate/Ligand_Complex_Stripped/MOX_1FCO.pdb
 OpenBabel08222315203D

 35 36  0  0  1  0  0  0  0  0999 V2000
   26.6410    1.8530   16.2110 N   0  0  0  0  0  0  0  0  0  0  0  0
   27.9800    2.3470   16.5610 C   0  0  2  0  0  0  0  0  0  0  0  0
   28.9410    1.3220   17.2340 C   0  0  0  0  0  0  0  0  0  0  0  0
   30.1600    1.5010   17.1710 O   0  0  0  0  0  0  0  0  0  0  0  0
   27.9160    3.6690   17.3630 C   0  0  0  0  0  0  0  0  0  0  0  0
   27.4550    4.7730   16.5410 O   0  0  0  0  0  0  0  0  0  0  0  0
   26.1300    5.0360   16.6860 C   0  0  0  0  0  0  0  0  0  0  0  0
   25.3890    4.1780   17.1010 O   0  0  0  0  0  0  0  0  0  0  0  0
   25.5710    6.3730   16.2670 C   0  0  1  0  0  0  0  0  0  0  0  0
   24.4240    6.1970   15.2960 N   0  0  0  0  0  0  0  0  0  0  0  0
   25.0290    7.2000   17.6260 C   0  0  1  0  0  0  0  0  0  0  0  0
   26.2380    7.6650   18.3050 O   0  0  0  0  0  0  0  0  0  0  0  0
   26.0620    8.7690   19.2450 C   0  0  0  0  0  0  0  0  0  0  0  0
   25.3610    9.9100   18.5710 C   0  0  0  0  0  0  0  0  0  0  0  0
   24.2990    9.5840   17.5250 C   0  0  0  0  0  0  0  0  0  0  0  0
   23.4060   10.6430   16.8900 C   0  0  0  0  0  0  0  0  0  0  0  0
   24.1640    8.3290   17.1290 N   0  0  0  0  0  0  0  0  0  0  0  0
   25.6000   11.1900   19.0180 C   0  0  0  0  0  0  0  0  0  0  0  0
   24.4690    5.3140   14.2350 C   0  0  0  0  0  0  0  0  0  0  0  0
   25.4880    4.6320   14.0480 O   0  0  0  0  0  0  0  0  0  0  0  0
   23.2500    5.1840   13.2340 C   0  0  2  0  0  0  0  0  0  0  0  0
   23.4810    5.9830   11.9960 C   0  0  0  0  0  0  0  0  0  0  0  0
   23.0920    5.4560   10.7220 C   0  0  0  0  0  0  0  0  0  0  0  0
   23.3020    6.2400    9.5330 C   0  0  0  0  0  0  0  0  0  0  0  0
   23.9030    7.5590    9.6200 C   0  0  0  0  0  0  0  0  0  0  0  0
   24.1110    8.3340    8.4390 O   0  0  0  0  0  0  0  0  0  0  0  0
   24.2920    8.0790   10.8810 C   0  0  0  0  0  0  0  0  0  0  0  0
   24.0840    7.2980   12.0790 C   0  0  0  0  0  0  0  0  0  0  0  0
   21.9580    5.6790   13.8600 C   0  0  0  0  0  0  0  0  0  0  0  0
   20.9040    5.0270   13.7050 O   0  0  0  0  0  0  0  0  0  0  0  0
   21.9290    6.7640   14.4940 O   0  0  0  0  0  0  0  0  0  0  0  0
   26.6550    7.1330   15.6550 O   0  0  0  0  0  0  0  0  0  0  0  0
   26.2500    8.3160   14.8890 C   0  0  0  0  0  0  0  0  0  0  0  0
   22.4600   10.2940   16.0350 O   0  0  0  0  0  0  0  0  0  0  0  0
   23.6070   11.8790   17.1720 O   0  0  0  0  0  0  0  0  0  0  0  0
  2  1  1  1  0  0  0
  2  3  1  0  0  0  0
  2  5  1  0  0  0  0
  4  3  2  0  0  0  0
  6  7  1  0  0  0  0
  6  5  1  0  0  0  0
  7  8  2  0  0  0  0
  9  7  1  1  0  0  0
  9 10  1  0  0  0  0
  9 32  1  0  0  0  0
 10 19  1  0  0  0  0
 11  9  1  6  0  0  0
 11 12  1  0  0  0  0
 11 17  1  0  0  0  0
 12 13  1  0  0  0  0
 13 14  1  0  0  0  0
 14 15  1  0  0  0  0
 14 18  2  0  0  0  0
 15 16  1  0  0  0  0
 15 17  2  0  0  0  0
 16 34  2  0  0  0  0
 16 35  1  0  0  0  0
 19 20  2  0  0  0  0
 21 19  1  1  0  0  0
 21 22  1  0  0  0  0
 21 29  1  0  0  0  0
 22 23  2  0  0  0  0
 22 28  1  0  0  0  0
 23 24  1  0  0  0  0
 24 25  2  0  0  0  0
 25 26  1  0  0  0  0
 25 27  1  0  0  0  0
 27 28  2  0  0  0  0
 29 30  2  0  0  0  0
 29 31  1  0  0  0  0
 32 33  1  0  0  0  0
M  END
>  <HEADER>
    HYDROLASE                               19-JUL-00   1FCO              

>  <TITLE>
    CRYSTAL STRUCTURE OF THE E. COLI AMPC BETA-LACTAMASE COVALENTLY       
   2 ACYLATED WITH THE INHIBITORY BETA-LACTAM, MOXALACTAM                 

>  <COMPND>
    MOL_ID: 1;                                                            
   2 MOLECULE: BETA-LACTAMASE;                                            
   3 CHAIN: A, B;                                                         
   4 SYNONYM: CEPHALOSPORINASE, AMPC BETA-LACTAMASE;                      
   5 EC: 3.5.2.6;                                                         
   6 ENGINEERED: YES;                                                     
   7 MUTATION: YES;                                                       
   8 OTHER_DETAILS: INHIBITOR MOXALACTAM, RESIDUE MOX, BINDS TO SER 61 BY 
   9 BREAKING ITS C1-N1 LACTAM BOND                                       

>  <SOURCE>
    MOL_ID: 1;                                                            
   2 ORGANISM_SCIENTIFIC: ESCHERICHIA COLI;                               
   3 ORGANISM_TAXID: 562;                                                 
   4 EXPRESSION_SYSTEM: ESCHERICHIA COLI;                                 
   5 EXPRESSION_SYSTEM_TAXID: 562;                                        
   6 EXPRESSION_SYSTEM_VECTOR_TYPE: PLASMID;                              
   7 EXPRESSION_SYSTEM_PLASMID: POGO295                                   

>  <KEYWDS>
    BETA-LACTAMASE BETA-LACTAM COMPLEX, ENZYME INHIBITOR COMPLEX,         
   2 HYDROLASE                                                            

>  <EXPDTA>
    X-RAY DIFFRACTION                                                     

>  <AUTHOR>
    A.PATERA,L.C.BLASZCZAK,B.K.SHOICHET                                   

>  <REVDAT>
   4   04-OCT-17 1FCO    1       REMARK                                   
   3   24-AUG-11 1FCO    1       HETNAM HETSYN VERSN                      
   2   24-FEB-09 1FCO    1       VERSN                                    
   1   04-DEC-00 1FCO    0                                                

>  <JRNL>
      AUTH   A.PATERA,L.C.BLASZCZAK,B.K.SHOICHET                          
      TITL   CRYSTAL STRUCTURES OF SUBSTRATE AND INHIBITOR COMPLEXES WITH 
      TITL 2 AMPC -LACTAMASE: POSSIBLE IMPLICATIONS FOR                   
      TITL 3 SUBSTRATE-ASSISTED CATALYSIS                                 
      REF    J.AM.CHEM.SOC.                V. 122 10504 2000              
      REFN                   ISSN 0002-7863                               
      DOI    10.1021/JA001676X                                            

>  <REMARK>
   2                                                                      
   2 RESOLUTION.    2.20 ANGSTROMS.                                       
   3                                                                      
   3 REFINEMENT.                                                          
   3   PROGRAM     : CNS                                                  
   3   AUTHORS     : BRUNGER,ADAMS,CLORE,DELANO,GROS,GROSSE-              
   3               : KUNSTLEVE,JIANG,KUSZEWSKI,NILGES,PANNU,              
   3               : READ,RICE,SIMONSON,WARREN                            
   3                                                                      
   3  REFINEMENT TARGET : NULL                                            
   3                                                                      
   3  DATA USED IN REFINEMENT.                                            
   3   RESOLUTION RANGE HIGH (ANGSTROMS) : 2.20                           
   3   RESOLUTION RANGE LOW  (ANGSTROMS) : 8.00                           
   3   DATA CUTOFF            (SIGMA(F)) : 0.000                          
   3   DATA CUTOFF HIGH         (ABS(F)) : NULL                           
   3   DATA CUTOFF LOW          (ABS(F)) : NULL                           
   3   COMPLETENESS (WORKING+TEST)   (%) : 97.8                           
   3   NUMBER OF REFLECTIONS             : 38475                          
   3                                                                      
   3  FIT TO DATA USED IN REFINEMENT.                                     
   3   CROSS-VALIDATION METHOD          : THROUGHOUT                      
   3   FREE R VALUE TEST SET SELECTION  : RANDOM                          
   3   R VALUE            (WORKING SET) : 0.215                           
   3   FREE R VALUE                     : 0.258                           
   3   FREE R VALUE TEST SET SIZE   (%) : 10.000                          
   3   FREE R VALUE TEST SET COUNT      : 3839                            
   3   ESTIMATED ERROR OF FREE R VALUE  : NULL                            
   3                                                                      
   3  FIT IN THE HIGHEST RESOLUTION BIN.                                  
   3   TOTAL NUMBER OF BINS USED           : NULL                         
   3   BIN RESOLUTION RANGE HIGH       (A) : NULL                         
   3   BIN RESOLUTION RANGE LOW        (A) : NULL                         
   3   BIN COMPLETENESS (WORKING+TEST) (%) : NULL                         
   3   REFLECTIONS IN BIN    (WORKING SET) : NULL                         
   3   BIN R VALUE           (WORKING SET) : NULL                         
   3   BIN FREE R VALUE                    : NULL                         
   3   BIN FREE R VALUE TEST SET SIZE  (%) : NULL                         
   3   BIN FREE R VALUE TEST SET COUNT     : NULL                         
   3   ESTIMATED ERROR OF BIN FREE R VALUE : NULL                         
   3                                                                      
   3  NUMBER OF NON-HYDROGEN ATOMS USED IN REFINEMENT.                    
   3   PROTEIN ATOMS            : 5553                                    
   3   NUCLEIC ACID ATOMS       : 0                                       
   3   HETEROGEN ATOMS          : 58                                      
   3   SOLVENT ATOMS            : 145                                     
   3                                                                      
   3  B VALUES.                                                           
   3   FROM WILSON PLOT           (A**2) : NULL                           
   3   MEAN B VALUE      (OVERALL, A**2) : NULL                           
   3   OVERALL ANISOTROPIC B VALUE.                                       
   3    B11 (A**2) : -2.92400                                             
   3    B22 (A**2) : 1.78000                                              
   3    B33 (A**2) : 1.14400                                              
   3    B12 (A**2) : 0.00000                                              
   3    B13 (A**2) : -6.07800                                             
   3    B23 (A**2) : 0.00000                                              
   3                                                                      
   3  ESTIMATED COORDINATE ERROR.                                         
   3   ESD FROM LUZZATI PLOT        (A) : NULL                            
   3   ESD FROM SIGMAA              (A) : NULL                            
   3   LOW RESOLUTION CUTOFF        (A) : NULL                            
   3                                                                      
   3  CROSS-VALIDATED ESTIMATED COORDINATE ERROR.                         
   3   ESD FROM C-V LUZZATI PLOT    (A) : NULL                            
   3   ESD FROM C-V SIGMAA          (A) : NULL                            
   3                                                                      
   3  RMS DEVIATIONS FROM IDEAL VALUES.                                   
   3   BOND LENGTHS                 (A) : NULL                            
   3   BOND ANGLES            (DEGREES) : NULL                            
   3   DIHEDRAL ANGLES        (DEGREES) : NULL                            
   3   IMPROPER ANGLES        (DEGREES) : NULL                            
   3                                                                      
   3  ISOTROPIC THERMAL MODEL : NULL                                      
   3                                                                      
   3  ISOTROPIC THERMAL FACTOR RESTRAINTS.    RMS    SIGMA                
   3   MAIN-CHAIN BOND              (A**2) : NULL  ; NULL                 
   3   MAIN-CHAIN ANGLE             (A**2) : NULL  ; NULL                 
   3   SIDE-CHAIN BOND              (A**2) : NULL  ; NULL                 
   3   SIDE-CHAIN ANGLE             (A**2) : NULL  ; NULL                 
   3                                                                      
   3  BULK SOLVENT MODELING.                                              
   3   METHOD USED : NULL                                                 
   3   KSOL        : NULL                                                 
   3   BSOL        : NULL                                                 
   3                                                                      
   3  NCS MODEL : NULL                                                    
   3                                                                      
   3  NCS RESTRAINTS.                         RMS   SIGMA/WEIGHT          
   3   GROUP  1  POSITIONAL            (A) : NULL  ; NULL                 
   3   GROUP  1  B-FACTOR           (A**2) : NULL  ; NULL                 
   3                                                                      
   3  PARAMETER FILE  1  : NULL                                           
   3  TOPOLOGY FILE  1   : NULL                                           
   3                                                                      
   3  OTHER REFINEMENT REMARKS: NULL                                      
   4                                                                      
   4 1FCO COMPLIES WITH FORMAT V. 3.30, 13-JUL-11                         
 100                                                                      
 100 THIS ENTRY HAS BEEN PROCESSED BY RCSB ON 11-AUG-00.                  
 100 THE DEPOSITION ID IS D_1000011482.                                   
 200                                                                      
 200 EXPERIMENTAL DETAILS                                                 
 200  EXPERIMENT TYPE                : X-RAY DIFFRACTION                  
 200  DATE OF DATA COLLECTION        : NULL                               
 200  TEMPERATURE           (KELVIN) : 129                                
 200  PH                             : 8.7                                
 200  NUMBER OF CRYSTALS USED        : 1                                  
 200                                                                      
 200  SYNCHROTRON              (Y/N) : NULL                               
 200  RADIATION SOURCE               : NULL                               
 200  BEAMLINE                       : NULL                               
 200  X-RAY GENERATOR MODEL          : NULL                               
 200  MONOCHROMATIC OR LAUE    (M/L) : M                                  
 200  WAVELENGTH OR RANGE        (A) : NULL                               
 200  MONOCHROMATOR                  : NULL                               
 200  OPTICS                         : NULL                               
 200                                                                      
 200  DETECTOR TYPE                  : NULL                               
 200  DETECTOR MANUFACTURER          : NULL                               
 200  INTENSITY-INTEGRATION SOFTWARE : R-AXIS                             
 200  DATA SCALING SOFTWARE          : SCALEPACK                          
 200                                                                      
 200  NUMBER OF UNIQUE REFLECTIONS   : 39390                              
 200  RESOLUTION RANGE HIGH      (A) : 2.200                              
 200  RESOLUTION RANGE LOW       (A) : 20.000                             
 200  REJECTION CRITERIA  (SIGMA(I)) : 0.000                              
 200                                                                      
 200 OVERALL.                                                             
 200  COMPLETENESS FOR RANGE     (%) : NULL                               
 200  DATA REDUNDANCY                : NULL                               
 200  R MERGE                    (I) : 0.11400                            
 200  R SYM                      (I) : NULL                               
 200  <I/SIGMA(I)> FOR THE DATA SET  : 12.8000                            
 200                                                                      
 200 IN THE HIGHEST RESOLUTION SHELL.                                     
 200  HIGHEST RESOLUTION SHELL, RANGE HIGH (A) : 2.20                     
 200  HIGHEST RESOLUTION SHELL, RANGE LOW  (A) : 2.25                     
 200  COMPLETENESS FOR SHELL     (%) : NULL                               
 200  DATA REDUNDANCY IN SHELL       : NULL                               
 200  R MERGE FOR SHELL          (I) : 0.31600                            
 200  R SYM FOR SHELL            (I) : NULL                               
 200  <I/SIGMA(I)> FOR SHELL         : NULL                               
 200                                                                      
 200 DIFFRACTION PROTOCOL: SINGLE WAVELENGTH                              
 200 METHOD USED TO DETERMINE THE STRUCTURE: NULL                         
 200 SOFTWARE USED: CNS                                                   
 200 STARTING MODEL: NULL                                                 
 200                                                                      
 200 REMARK: NULL                                                         
 280                                                                      
 280 CRYSTAL                                                              
 280 SOLVENT CONTENT, VS   (%): 51.34                                     
 280 MATTHEWS COEFFICIENT, VM (ANGSTROMS**3/DA): 2.53                     
 280                                                                      
 280 CRYSTALLIZATION CONDITIONS: 1.7 M POTASSIUM PHOSPHATE, PH 8.7,       
 280  VAPOR DIFFUSION, HANGING DROP, TEMPERATURE 293K                     
 290                                                                      
 290 CRYSTALLOGRAPHIC SYMMETRY                                            
 290 SYMMETRY OPERATORS FOR SPACE GROUP: C 1 2 1                          
 290                                                                      
 290      SYMOP   SYMMETRY                                                
 290     NNNMMM   OPERATOR                                                
 290       1555   X,Y,Z                                                   
 290       2555   -X,Y,-Z                                                 
 290       3555   X+1/2,Y+1/2,Z                                           
 290       4555   -X+1/2,Y+1/2,-Z                                         
 290                                                                      
 290     WHERE NNN -> OPERATOR NUMBER                                     
 290           MMM -> TRANSLATION VECTOR                                  
 290                                                                      
 290 CRYSTALLOGRAPHIC SYMMETRY TRANSFORMATIONS                            
 290 THE FOLLOWING TRANSFORMATIONS OPERATE ON THE ATOM/HETATM             
 290 RECORDS IN THIS ENTRY TO PRODUCE CRYSTALLOGRAPHICALLY                
 290 RELATED MOLECULES.                                                   
 290   SMTRY1   1  1.000000  0.000000  0.000000        0.00000            
 290   SMTRY2   1  0.000000  1.000000  0.000000        0.00000            
 290   SMTRY3   1  0.000000  0.000000  1.000000        0.00000            
 290   SMTRY1   2 -1.000000  0.000000  0.000000        0.00000            
 290   SMTRY2   2  0.000000  1.000000  0.000000        0.00000            
 290   SMTRY3   2  0.000000  0.000000 -1.000000        0.00000            
 290   SMTRY1   3  1.000000  0.000000  0.000000       59.05800            
 290   SMTRY2   3  0.000000  1.000000  0.000000       38.58300            
 290   SMTRY3   3  0.000000  0.000000  1.000000        0.00000            
 290   SMTRY1   4 -1.000000  0.000000  0.000000       59.05800            
 290   SMTRY2   4  0.000000  1.000000  0.000000       38.58300            
 290   SMTRY3   4  0.000000  0.000000 -1.000000        0.00000            
 290                                                                      
 290 REMARK: NULL                                                         
 300                                                                      
 300 BIOMOLECULE: 1, 2                                                    
 300 SEE REMARK 350 FOR THE AUTHOR PROVIDED AND/OR PROGRAM                
 300 GENERATED ASSEMBLY INFORMATION FOR THE STRUCTURE IN                  
 300 THIS ENTRY. THE REMARK MAY ALSO PROVIDE INFORMATION ON               
 300 BURIED SURFACE AREA.                                                 
 350                                                                      
 350 COORDINATES FOR A COMPLETE MULTIMER REPRESENTING THE KNOWN           
 350 BIOLOGICALLY SIGNIFICANT OLIGOMERIZATION STATE OF THE                
 350 MOLECULE CAN BE GENERATED BY APPLYING BIOMT TRANSFORMATIONS          
 350 GIVEN BELOW.  BOTH NON-CRYSTALLOGRAPHIC AND                          
 350 CRYSTALLOGRAPHIC OPERATIONS ARE GIVEN.                               
 350                                                                      
 350 BIOMOLECULE: 1                                                       
 350 AUTHOR DETERMINED BIOLOGICAL UNIT: MONOMERIC                         
 350 APPLY THE FOLLOWING TO CHAINS: A                                     
 350   BIOMT1   1  1.000000  0.000000  0.000000        0.00000            
 350   BIOMT2   1  0.000000  1.000000  0.000000        0.00000            
 350   BIOMT3   1  0.000000  0.000000  1.000000        0.00000            
 350                                                                      
 350 BIOMOLECULE: 2                                                       
 350 AUTHOR DETERMINED BIOLOGICAL UNIT: MONOMERIC                         
 350 APPLY THE FOLLOWING TO CHAINS: B                                     
 350   BIOMT1   1  1.000000  0.000000  0.000000        0.00000            
 350   BIOMT2   1  0.000000  1.000000  0.000000        0.00000            
 350   BIOMT3   1  0.000000  0.000000  1.000000        0.00000            
 465                                                                      
 465 MISSING RESIDUES                                                     
 465 THE FOLLOWING RESIDUES WERE NOT LOCATED IN THE                       
 465 EXPERIMENT. (M=MODEL NUMBER; RES=RESIDUE NAME; C=CHAIN               
 465 IDENTIFIER; SSSEQ=SEQUENCE NUMBER; I=INSERTION CODE.)                
 465                                                                      
 465   M RES C SSSEQI                                                     
 465     SER A   284                                                      
 465     ASP A   285                                                      
 465     ASN A   286                                                      
 465     LYS A   287                                                      
 465     ILE A   288                                                      
 470                                                                      
 470 MISSING ATOM                                                         
 470 THE FOLLOWING RESIDUES HAVE MISSING ATOMS (M=MODEL NUMBER;           
 470 RES=RESIDUE NAME; C=CHAIN IDENTIFIER; SSEQ=SEQUENCE NUMBER;          
 470 I=INSERTION CODE):                                                   
 470   M RES CSSEQI  ATOMS                                                
 470     GLN A 358    CG   CD   OE1  NE2                                  
 470     GLN B 358    CG   CD   OE1  NE2                                  
 500                                                                      
 500 GEOMETRY AND STEREOCHEMISTRY                                         
 500 SUBTOPIC: COVALENT BOND ANGLES                                       
 500                                                                      
 500 THE STEREOCHEMICAL PARAMETERS OF THE FOLLOWING RESIDUES              
 500 HAVE VALUES WHICH DEVIATE FROM EXPECTED VALUES BY MORE               
 500 THAN 6*RMSD (M=MODEL NUMBER; RES=RESIDUE NAME; C=CHAIN               
 500 IDENTIFIER; SSEQ=SEQUENCE NUMBER; I=INSERTION CODE).                 
 500                                                                      
 500 STANDARD TABLE:                                                      
 500 FORMAT: (10X,I3,1X,A3,1X,A1,I4,A1,3(1X,A4,2X),12X,F5.1)              
 500                                                                      
 500 EXPECTED VALUES PROTEIN: ENGH AND HUBER, 1999                        
 500 EXPECTED VALUES NUCLEIC ACID: CLOWNEY ET AL 1996                     
 500                                                                      
 500  M RES CSSEQI ATM1   ATM2   ATM3                                     
 500    LEU A 290   N   -  CA  -  C   ANGL. DEV. = -20.2 DEGREES          
 500    MET B  25   CG  -  SD  -  CE  ANGL. DEV. =   9.8 DEGREES          
 500                                                                      
 500 REMARK: NULL                                                         
 500                                                                      
 500 GEOMETRY AND STEREOCHEMISTRY                                         
 500 SUBTOPIC: TORSION ANGLES                                             
 500                                                                      
 500 TORSION ANGLES OUTSIDE THE EXPECTED RAMACHANDRAN REGIONS:            
 500 (M=MODEL NUMBER; RES=RESIDUE NAME; C=CHAIN IDENTIFIER;               
 500 SSEQ=SEQUENCE NUMBER; I=INSERTION CODE).                             
 500                                                                      
 500 STANDARD TABLE:                                                      
 500 FORMAT:(10X,I3,1X,A3,1X,A1,I4,A1,4X,F7.2,3X,F7.2)                    
 500                                                                      
 500 EXPECTED VALUES: GJ KLEYWEGT AND TA JONES (1996). PHI/PSI-           
 500 CHOLOGY: RAMACHANDRAN REVISITED. STRUCTURE 4, 1395 - 1400            
 500                                                                      
 500  M RES CSSEQI        PSI       PHI                                   
 500    TRP A  90       68.29   -160.09                                   
 500    LYS A 123      -60.37    -95.46                                   
 500    VAL A 175      -61.26   -130.51                                   
 500    TYR A 218       20.98   -158.03                                   
 500    LEU A 238        0.91    -69.43                                   
 500    ASN A 282       30.19     78.11                                   
 500    LEU A 290       89.10   -173.20                                   
 500    ALA A 304      126.31    -31.27                                   
 500    ASN A 338       55.08   -101.37                                   
 500    LYS B 123      -78.80   -113.71                                   
 500    VAL B 175      -69.99   -125.38                                   
 500    TYR B 218       29.50   -164.51                                   
 500    LYS B 312      129.46   -171.55                                   
 500    ASN B 338       48.41    -94.85                                   
 500                                                                      
 500 REMARK: NULL                                                         
 800                                                                      
 800 SITE                                                                 
 800 SITE_IDENTIFIER: AC1                                                 
 800 EVIDENCE_CODE: SOFTWARE                                              
 800 SITE_DESCRIPTION: BINDING SITE FOR RESIDUE MOX A 961                 
 800                                                                      
 800 SITE_IDENTIFIER: AC2                                                 
 800 EVIDENCE_CODE: SOFTWARE                                              
 800 SITE_DESCRIPTION: BINDING SITE FOR RESIDUE MOX B 961                 
 900                                                                      
 900 RELATED ENTRIES                                                      
 900 RELATED ID: 1FCM   RELATED DB: PDB                                   
 900 THE MUTANT PROTEIN Q120L/Y150E COMPLEXED WITH INHIBITOR CLOXACILLIN  
 900 RELATED ID: 1FCN   RELATED DB: PDB                                   
 900 THE MUTANT PROTEIN Q120L/Y150E COMPLEXED WITH INHIBITOR LORACARBEF   

>  <DBREF>
 1FCO A    1   358  UNP    P00811   AMPC_ECOLI      20    377             
 1FCO B    1   358  UNP    P00811   AMPC_ECOLI      20    377             

>  <SEQRES>
   1 A  358  ALA PRO GLN GLN ILE ASN ASP ILE VAL HIS ARG THR ILE          
   2 A  358  THR PRO LEU ILE GLU GLN GLN LYS ILE PRO GLY MET ALA          
   3 A  358  VAL ALA VAL ILE TYR GLN GLY LYS PRO TYR TYR PHE THR          
   4 A  358  TRP GLY TYR ALA ASP ILE ALA LYS LYS GLN PRO VAL THR          
   5 A  358  GLN GLN THR LEU PHE GLU LEU GLY SER VAL SER LYS THR          
   6 A  358  PHE THR GLY VAL LEU GLY GLY ASP ALA ILE ALA ARG GLY          
   7 A  358  GLU ILE LYS LEU SER ASP PRO THR THR LYS TYR TRP PRO          
   8 A  358  GLU LEU THR ALA LYS GLN TRP ASN GLY ILE THR LEU LEU          
   9 A  358  HIS LEU ALA THR TYR THR ALA GLY GLY LEU PRO LEU GLN          
  10 A  358  VAL PRO ASP GLU VAL LYS SER SER SER ASP LEU LEU ARG          
  11 A  358  PHE TYR GLN ASN TRP GLN PRO ALA TRP ALA PRO GLY THR          
  12 A  358  GLN ARG LEU TYR ALA ASN SER SER ILE GLY LEU PHE GLY          
  13 A  358  ALA LEU ALA VAL LYS PRO SER GLY LEU SER PHE GLU GLN          
  14 A  358  ALA MET GLN THR ARG VAL PHE GLN PRO LEU LYS LEU ASN          
  15 A  358  HIS THR TRP ILE ASN VAL PRO PRO ALA GLU GLU LYS ASN          
  16 A  358  TYR ALA TRP GLY TYR ARG GLU GLY LYS ALA VAL HIS VAL          
  17 A  358  SER PRO GLY ALA LEU ASP ALA GLU ALA TYR GLY VAL LYS          
  18 A  358  SER THR ILE GLU ASP MET ALA ARG TRP VAL GLN SER ASN          
  19 A  358  LEU LYS PRO LEU ASP ILE ASN GLU LYS THR LEU GLN GLN          
  20 A  358  GLY ILE GLN LEU ALA GLN SER ARG TYR TRP GLN THR GLY          
  21 A  358  ASP MET TYR GLN GLY LEU GLY TRP GLU MET LEU ASP TRP          
  22 A  358  PRO VAL ASN PRO ASP SER ILE ILE ASN GLY SER ASP ASN          
  23 A  358  LYS ILE ALA LEU ALA ALA ARG PRO VAL LYS ALA ILE THR          
  24 A  358  PRO PRO THR PRO ALA VAL ARG ALA SER TRP VAL HIS LYS          
  25 A  358  THR GLY ALA THR GLY GLY PHE GLY SER TYR VAL ALA PHE          
  26 A  358  ILE PRO GLU LYS GLU LEU GLY ILE VAL MET LEU ALA ASN          
  27 A  358  LYS ASN TYR PRO ASN PRO ALA ARG VAL ASP ALA ALA TRP          
  28 A  358  GLN ILE LEU ASN ALA LEU GLN                                  
   1 B  358  ALA PRO GLN GLN ILE ASN ASP ILE VAL HIS ARG THR ILE          
   2 B  358  THR PRO LEU ILE GLU GLN GLN LYS ILE PRO GLY MET ALA          
   3 B  358  VAL ALA VAL ILE TYR GLN GLY LYS PRO TYR TYR PHE THR          
   4 B  358  TRP GLY TYR ALA ASP ILE ALA LYS LYS GLN PRO VAL THR          
   5 B  358  GLN GLN THR LEU PHE GLU LEU GLY SER VAL SER LYS THR          
   6 B  358  PHE THR GLY VAL LEU GLY GLY ASP ALA ILE ALA ARG GLY          
   7 B  358  GLU ILE LYS LEU SER ASP PRO THR THR LYS TYR TRP PRO          
   8 B  358  GLU LEU THR ALA LYS GLN TRP ASN GLY ILE THR LEU LEU          
   9 B  358  HIS LEU ALA THR TYR THR ALA GLY GLY LEU PRO LEU GLN          
  10 B  358  VAL PRO ASP GLU VAL LYS SER SER SER ASP LEU LEU ARG          
  11 B  358  PHE TYR GLN ASN TRP GLN PRO ALA TRP ALA PRO GLY THR          
  12 B  358  GLN ARG LEU TYR ALA ASN SER SER ILE GLY LEU PHE GLY          
  13 B  358  ALA LEU ALA VAL LYS PRO SER GLY LEU SER PHE GLU GLN          
  14 B  358  ALA MET GLN THR ARG VAL PHE GLN PRO LEU LYS LEU ASN          
  15 B  358  HIS THR TRP ILE ASN VAL PRO PRO ALA GLU GLU LYS ASN          
  16 B  358  TYR ALA TRP GLY TYR ARG GLU GLY LYS ALA VAL HIS VAL          
  17 B  358  SER PRO GLY ALA LEU ASP ALA GLU ALA TYR GLY VAL LYS          
  18 B  358  SER THR ILE GLU ASP MET ALA ARG TRP VAL GLN SER ASN          
  19 B  358  LEU LYS PRO LEU ASP ILE ASN GLU LYS THR LEU GLN GLN          
  20 B  358  GLY ILE GLN LEU ALA GLN SER ARG TYR TRP GLN THR GLY          
  21 B  358  ASP MET TYR GLN GLY LEU GLY TRP GLU MET LEU ASP TRP          
  22 B  358  PRO VAL ASN PRO ASP SER ILE ILE ASN GLY SER ASP ASN          
  23 B  358  LYS ILE ALA LEU ALA ALA ARG PRO VAL LYS ALA ILE THR          
  24 B  358  PRO PRO THR PRO ALA VAL ARG ALA SER TRP VAL HIS LYS          
  25 B  358  THR GLY ALA THR GLY GLY PHE GLY SER TYR VAL ALA PHE          
  26 B  358  ILE PRO GLU LYS GLU LEU GLY ILE VAL MET LEU ALA ASN          
  27 B  358  LYS ASN TYR PRO ASN PRO ALA ARG VAL ASP ALA ALA TRP          
  28 B  358  GLN ILE LEU ASN ALA LEU GLN                                  

>  <HET>
 MOX  A 961      29                                                       
 MOX  B 961      29                                                       

>  <HETNAM>
     MOX (2R)-2-[(1R)-1-{[(2S)-2-CARBOXY-2-(4-HYDROXYPHENYL)              
   2 MOX  ACETYL]AMINO}-1-METHOXY-2-OXOETHYL]-5-METHYLIDENE-5,6-          
   3 MOX  DIHYDRO-2H-1,3-OXAZINE-4-CARBOXYLIC ACID                        

>  <HETSYN>
     MOX MOXALACTAM DERIVATIVE (OPEN FORM)                                

>  <FORMUL>
   3  MOX    2(C18 H18 N2 O9)                                             
   5  HOH   *145(H2 O)                                                    

>  <HELIX>
   1   1 PRO A    2  LYS A   21  1                                  20    
   2   2 VAL A   62  ARG A   77  1                                  16    
   3   3 THR A   86  TRP A   90  5                                   5    
   4   4 ALA A   95  ASN A   99  5                                   5    
   5   5 THR A  102  THR A  108  1                                   7    
   6   6 SER A  124  TRP A  135  1                                  12    
   7   7 ALA A  148  VAL A  160  1                                  13    
   8   8 LYS A  161  GLY A  164  5                                   4    
   9   9 SER A  166  VAL A  175  1                                  10    
  10  10 PRO A  189  ASN A  195  5                                   7    
  11  11 LEU A  213  TYR A  218  1                                   6    
  12  12 THR A  223  LYS A  236  1                                  14    
  13  13 PRO A  237  ILE A  240  5                                   4    
  14  14 GLU A  242  GLN A  253  1                                  12    
  15  15 ASN A  276  ILE A  281  1                                   6    
  16  16 PRO A  327  GLU A  330  5                                   4    
  17  17 PRO A  342  ALA A  356  1                                  15    
  18  18 PRO B    2  LYS B   21  1                                  20    
  19  19 VAL B   62  ARG B   77  1                                  16    
  20  20 THR B   86  TYR B   89  5                                   4    
  21  21 ALA B   95  ASN B   99  5                                   5    
  22  22 THR B  102  TYR B  109  1                                   8    
  23  23 SER B  124  TRP B  135  1                                  12    
  24  24 ALA B  148  VAL B  160  1                                  13    
  25  25 SER B  166  VAL B  175  1                                  10    
  26  26 PRO B  189  ASN B  195  5                                   7    
  27  27 LEU B  213  GLY B  219  1                                   7    
  28  28 ILE B  224  LYS B  236  1                                  13    
  29  29 PRO B  237  ILE B  240  5                                   4    
  30  30 GLU B  242  GLN B  253  1                                  12    
  31  31 ASN B  276  SER B  284  1                                   9    
  32  32 ASP B  285  LEU B  290  1                                   6    
  33  33 PRO B  327  GLU B  330  5                                   4    
  34  34 PRO B  342  GLN B  358  1                                  17    

>  <SHEET>
   1   A10 GLN A  49  PRO A  50  0                                        
   2   A10 LYS A  34  ASP A  44 -1  N  ALA A  43   O  GLN A  49           
   3   A10 GLY A  24  TYR A  31 -1  O  MET A  25   N  TRP A  40           
   4   A10 LEU A 331  ALA A 337 -1  O  GLY A 332   N  ILE A  30           
   5   A10 GLY A 320  ILE A 326 -1  O  GLY A 320   N  ALA A 337           
   6   A10 SER A 308  ALA A 315 -1  N  VAL A 310   O  PHE A 325           
   7   A10 GLU A 269  ASP A 272 -1  O  GLU A 269   N  HIS A 311           
   8   A10 MET A 262  GLN A 264 -1  O  TYR A 263   N  MET A 270           
   9   A10 ARG A 255  THR A 259 -1  N  TYR A 256   O  GLN A 264           
  10   A10 LYS A 296  THR A 302 -1  N  LYS A 296   O  GLN A 258           
   1   B 3 PHE A  57  GLU A  58  0                                        
   2   B 3 LYS A 221  SER A 222 -1  O  SER A 222   N  PHE A  57           
   3   B 3 THR A 184  TRP A 185 -1  N  TRP A 185   O  LYS A 221           
   1   C 2 GLN A 144  ARG A 145  0                                        
   2   C 2 ARG A 293  PRO A 294 -1  O  ARG A 293   N  ARG A 145           
   1   D 2 GLY A 199  ARG A 201  0                                        
   2   D 2 LYS A 204  VAL A 206 -1  N  LYS A 204   O  ARG A 201           
   1   E10 GLN B  49  PRO B  50  0                                        
   2   E10 LYS B  34  ASP B  44 -1  N  ALA B  43   O  GLN B  49           
   3   E10 GLY B  24  TYR B  31 -1  O  MET B  25   N  TRP B  40           
   4   E10 LEU B 331  ALA B 337 -1  O  GLY B 332   N  ILE B  30           
   5   E10 PHE B 319  ILE B 326 -1  N  GLY B 320   O  ALA B 337           
   6   E10 SER B 308  THR B 316 -1  N  VAL B 310   O  PHE B 325           
   7   E10 GLU B 269  ASP B 272 -1  O  GLU B 269   N  HIS B 311           
   8   E10 MET B 262  GLN B 264 -1  N  TYR B 263   O  MET B 270           
   9   E10 ARG B 255  THR B 259 -1  N  TYR B 256   O  GLN B 264           
  10   E10 LYS B 296  THR B 302 -1  N  LYS B 296   O  GLN B 258           
   1   F 2 LEU B  56  GLU B  58  0                                        
   2   F 2 LYS B 221  THR B 223 -1  O  SER B 222   N  PHE B  57           
   1   G 2 GLN B 144  ARG B 145  0                                        
   2   G 2 ARG B 293  PRO B 294 -1  O  ARG B 293   N  ARG B 145           
   1   H 2 GLY B 199  ARG B 201  0                                        
   2   H 2 LYS B 204  VAL B 206 -1  N  LYS B 204   O  ARG B 201           

>  <LINK>
       OG  SER A  61                 C1  MOX A 961     1555   1555  1.36  
       OG  SER B  61                 C1  MOX B 961     1555   1555  1.32  

>  <CISPEP>
   1 TRP A  273    PRO A  274          0         0.14                     
   2 THR A  299    PRO A  300          0        -0.37                     
   3 TRP B  273    PRO B  274          0        -0.61                     
   4 THR B  299    PRO B  300          0        -0.98                     

>  <SITE>
   1 AC1 11 SER A  61  LEU A 116  TYR A 147  ASN A 149                    
   2 AC1 11 TYR A 218  GLY A 314  ALA A 315  THR A 316                    
   3 AC1 11 GLY A 317  HOH A1001  HOH A1010                               
   1 AC2 18 SER B  61  LYS B  64  GLN B 117  TYR B 147                    
   2 AC2 18 ASN B 149  VAL B 208  ALA B 217  TYR B 218                    
   3 AC2 18 ASN B 286  LEU B 290  GLY B 314  ALA B 315                    
   4 AC2 18 ASN B 343  HOH B 968  HOH B 984  HOH B1006                    
   5 AC2 18 HOH B1025  HOH B1028                                          

>  <ORIGX1>
      1.000000  0.000000  0.000000        0.00000                         

>  <ORIGX2>
      0.000000  1.000000  0.000000        0.00000                         

>  <ORIGX3>
      0.000000  0.000000  1.000000        0.00000                         

>  <SCALE1>
      0.008466  0.000000  0.004160        0.00000                         

>  <SCALE2>
      0.000000  0.012959  0.000000        0.00000                         

>  <SCALE3>
      0.000000  0.000000  0.011379        0.00000                         

>  <MASTER>
      301    0    2   34   33    0    8    6 5756    2   60   56          

$$$$
