start_structures/Ligand_Substrate/Ligand_Complex_Stripped/MX1_1K6R.pdb
 OpenBabel08222315213D

 35 36  0  0  1  0  0  0  0  0999 V2000
    6.7830   14.1120   60.9530 N   0  0  0  0  0  0  0  0  0  0  0  0
    7.1420   13.5220   62.2460 C   0  0  2  0  0  0  0  0  0  0  0  0
    8.2140   12.4200   62.2170 C   0  0  0  0  0  0  0  0  0  0  0  0
    8.8790   12.1950   63.2320 O   0  0  0  0  0  0  0  0  0  0  0  0
    5.9040   12.9570   62.9650 C   0  0  0  0  0  0  0  0  0  0  0  0
    4.9580   13.9670   63.3380 O   0  0  0  0  0  0  0  0  0  0  0  0
    0.3310    9.8530   63.0030 O   0  0  0  0  0  0  0  0  0  0  0  0
    0.6350   10.8110   62.2610 C   0  0  0  0  0  0  0  0  0  0  0  0
    1.0350   10.5910   61.0980 O   0  0  0  0  0  0  0  0  0  0  0  0
    0.5250   12.1960   62.7690 C   0  0  0  0  0  0  0  0  0  0  0  0
    1.7400   12.8780   63.0350 N   0  0  0  0  0  0  0  0  0  0  0  0
   -0.7080   12.7670   62.9660 C   0  0  0  0  0  0  0  0  0  0  0  0
   -1.9890   12.0960   62.7020 C   0  0  0  0  0  0  0  0  0  0  0  0
   -0.7610   14.1730   63.4890 C   0  0  0  0  0  0  0  0  0  0  0  0
    0.4350   14.9350   63.2100 O   0  0  0  0  0  0  0  0  0  0  0  0
    1.6720   14.2480   63.5430 C   0  0  2  0  0  0  0  0  0  0  0  0
    2.8360   15.2200   63.0090 C   0  0  2  0  0  0  0  0  0  0  0  0
    3.9770   14.2890   62.4420 C   0  0  0  0  0  0  0  0  0  0  0  0
    3.9720   13.7520   61.3360 O   0  0  0  0  0  0  0  0  0  0  0  0
    3.1380   15.9170   64.2360 O   0  0  0  0  0  0  0  0  0  0  0  0
    4.4340   16.4560   64.4440 C   0  0  0  0  0  0  0  0  0  0  0  0
    2.3270   16.1050   61.9490 N   0  0  0  0  0  0  0  0  0  0  0  0
    3.0980   16.9520   61.1640 C   0  0  0  0  0  0  0  0  0  0  0  0
    4.3510   17.0040   61.2350 O   0  0  0  0  0  0  0  0  0  0  0  0
    2.3680   17.8390   60.1500 C   0  0  2  0  0  0  0  0  0  0  0  0
    3.2860   18.9410   59.6870 C   0  0  0  0  0  0  0  0  0  0  0  0
    3.3170   20.0400   60.2850 O   0  0  0  0  0  0  0  0  0  0  0  0
    4.0440   18.7420   58.7090 O   0  0  0  0  0  0  0  0  0  0  0  0
    1.0640   18.3730   60.7070 C   0  0  0  0  0  0  0  0  0  0  0  0
    1.0300   19.2920   61.7570 C   0  0  0  0  0  0  0  0  0  0  0  0
   -0.1550   17.9470   60.1670 C   0  0  0  0  0  0  0  0  0  0  0  0
   -1.3780   18.4210   60.6590 C   0  0  0  0  0  0  0  0  0  0  0  0
   -1.3880   19.3340   61.7050 C   0  0  0  0  0  0  0  0  0  0  0  0
   -2.5930   19.8000   62.2020 O   0  0  0  0  0  0  0  0  0  0  0  0
   -0.1880   19.7760   62.2580 C   0  0  0  0  0  0  0  0  0  0  0  0
  2  1  1  6  0  0  0
  2  5  1  0  0  0  0
  3  2  1  0  0  0  0
  3  4  2  0  0  0  0
  5  6  1  0  0  0  0
  6 18  1  0  0  0  0
  7  8  2  0  0  0  0
  8  9  1  0  0  0  0
  8 10  1  0  0  0  0
 10 11  1  0  0  0  0
 10 12  2  0  0  0  0
 11 16  1  0  0  0  0
 12 13  1  0  0  0  0
 12 14  1  0  0  0  0
 14 15  1  0  0  0  0
 15 16  1  0  0  0  0
 16 17  1  6  0  0  0
 17 18  1  6  0  0  0
 17 20  1  0  0  0  0
 17 22  1  0  0  0  0
 18 19  2  0  0  0  0
 20 21  1  0  0  0  0
 22 23  1  0  0  0  0
 23 24  2  0  0  0  0
 25 23  1  1  0  0  0
 25 26  1  0  0  0  0
 25 29  1  0  0  0  0
 26 27  2  0  0  0  0
 26 28  1  0  0  0  0
 29 30  2  0  0  0  0
 29 31  1  0  0  0  0
 30 35  1  0  0  0  0
 31 32  2  0  0  0  0
 32 33  1  0  0  0  0
 33 34  1  0  0  0  0
 33 35  2  0  0  0  0
M  END
>  <HEADER>
    HYDROLASE                               17-OCT-01   1K6R              

>  <TITLE>
    STRUCTURE OF THE CLASS D BETA-LACTAMASE OXA-10 IN COMPLEX WITH        
   2 MOXALACTAM                                                           

>  <COMPND>
    MOL_ID: 1;                                                            
   2 MOLECULE: BETA-LACTAMASE PSE-2;                                      
   3 CHAIN: A, B;                                                         
   4 SYNONYM: BETA LACTAMASE OXA-10;                                      
   5 EC: 3.5.2.6;                                                         
   6 ENGINEERED: YES                                                      

>  <SOURCE>
    MOL_ID: 1;                                                            
   2 ORGANISM_SCIENTIFIC: PSEUDOMONAS AERUGINOSA;                         
   3 ORGANISM_TAXID: 287;                                                 
   4 GENE: PLASMID PMON234;                                               
   5 EXPRESSION_SYSTEM: ESCHERICHIA COLI BL21(DE3);                       
   6 EXPRESSION_SYSTEM_TAXID: 469008;                                     
   7 EXPRESSION_SYSTEM_STRAIN: BL21(DE3);                                 
   8 EXPRESSION_SYSTEM_VECTOR_TYPE: PLASMID;                              
   9 EXPRESSION_SYSTEM_PLASMID: PET22B                                    

>  <KEYWDS>
    BETA-LACTAMASE, MOXALACTAM, HYDROLASE, CLASS D                        

>  <EXPDTA>
    X-RAY DIFFRACTION                                                     

>  <AUTHOR>
    F.KERFF,E.FONZE,E.SAUVAGE,J.M.FRERE,P.CHARLIER                        

>  <REVDAT>
   4   16-AUG-23 1K6R    1       COMPND REMARK SEQADV HETNAM              
   4 2                   1       LINK                                     
   3   31-AUG-11 1K6R    1       HET    HETATM HETNAM HETSYN              
   3 2                   1       VERSN                                    
   2   24-FEB-09 1K6R    1       VERSN                                    
   1   24-JUN-03 1K6R    0                                                

>  <JRNL>
      AUTH   F.KERFF,E.FONZE,E.SAUVAGE,J.M.FRERE,P.CHARLIER               
      TITL   CRYSTAL STRUCTURE OF CLASS D BETA-LACTAMASE OXA-10 IN        
      TITL 2 COMPLEX WITH DIFFERENT SUBSTRATES AND ONE INHIBITOR.         
      REF    TO BE PUBLISHED                                              
      REFN                                                                

>  <REMARK>
   2                                                                      
   2 RESOLUTION.    2.30 ANGSTROMS.                                       
   3                                                                      
   3 REFINEMENT.                                                          
   3   PROGRAM     : CNS 1.0                                              
   3   AUTHORS     : BRUNGER,ADAMS,CLORE,DELANO,GROS,GROSSE-              
   3               : KUNSTLEVE,JIANG,KUSZEWSKI,NILGES,PANNU,              
   3               : READ,RICE,SIMONSON,WARREN                            
   3                                                                      
   3  REFINEMENT TARGET : ENGH & HUBER                                    
   3                                                                      
   3  DATA USED IN REFINEMENT.                                            
   3   RESOLUTION RANGE HIGH (ANGSTROMS) : 2.30                           
   3   RESOLUTION RANGE LOW  (ANGSTROMS) : 29.76                          
   3   DATA CUTOFF            (SIGMA(F)) : 2.000                          
   3   DATA CUTOFF HIGH         (ABS(F)) : 1883343.790                    
   3   DATA CUTOFF LOW          (ABS(F)) : 0.0000                         
   3   COMPLETENESS (WORKING+TEST)   (%) : 96.9                           
   3   NUMBER OF REFLECTIONS             : 26040                          
   3                                                                      
   3  FIT TO DATA USED IN REFINEMENT.                                     
   3   CROSS-VALIDATION METHOD          : THROUGHOUT                      
   3   FREE R VALUE TEST SET SELECTION  : RANDOM                          
   3   R VALUE            (WORKING SET) : 0.198                           
   3   FREE R VALUE                     : 0.237                           
   3   FREE R VALUE TEST SET SIZE   (%) : 9.900                           
   3   FREE R VALUE TEST SET COUNT      : 2587                            
   3   ESTIMATED ERROR OF FREE R VALUE  : 0.005                           
   3                                                                      
   3  FIT IN THE HIGHEST RESOLUTION BIN.                                  
   3   TOTAL NUMBER OF BINS USED           : 10                           
   3   BIN RESOLUTION RANGE HIGH       (A) : 2.30                         
   3   BIN RESOLUTION RANGE LOW        (A) : 2.38                         
   3   BIN COMPLETENESS (WORKING+TEST) (%) : 92.90                        
   3   REFLECTIONS IN BIN    (WORKING SET) : 2189                         
   3   BIN R VALUE           (WORKING SET) : 0.2350                       
   3   BIN FREE R VALUE                    : 0.2710                       
   3   BIN FREE R VALUE TEST SET SIZE  (%) : 9.80                         
   3   BIN FREE R VALUE TEST SET COUNT     : 239                          
   3   ESTIMATED ERROR OF BIN FREE R VALUE : 0.018                        
   3                                                                      
   3  NUMBER OF NON-HYDROGEN ATOMS USED IN REFINEMENT.                    
   3   PROTEIN ATOMS            : 3725                                    
   3   NUCLEIC ACID ATOMS       : 0                                       
   3   HETEROGEN ATOMS          : 58                                      
   3   SOLVENT ATOMS            : 186                                     
   3                                                                      
   3  B VALUES.                                                           
   3   FROM WILSON PLOT           (A**2) : 28.30                          
   3   MEAN B VALUE      (OVERALL, A**2) : 41.40                          
   3   OVERALL ANISOTROPIC B VALUE.                                       
   3    B11 (A**2) : 2.63000                                              
   3    B22 (A**2) : 8.78000                                              
   3    B33 (A**2) : -11.42000                                            
   3    B12 (A**2) : 0.00000                                              
   3    B13 (A**2) : 0.00000                                              
   3    B23 (A**2) : 0.00000                                              
   3                                                                      
   3  ESTIMATED COORDINATE ERROR.                                         
   3   ESD FROM LUZZATI PLOT        (A) : 0.25                            
   3   ESD FROM SIGMAA              (A) : 0.20                            
   3   LOW RESOLUTION CUTOFF        (A) : 5.00                            
   3                                                                      
   3  CROSS-VALIDATED ESTIMATED COORDINATE ERROR.                         
   3   ESD FROM C-V LUZZATI PLOT    (A) : 0.33                            
   3   ESD FROM C-V SIGMAA          (A) : 0.27                            
   3                                                                      
   3  RMS DEVIATIONS FROM IDEAL VALUES.                                   
   3   BOND LENGTHS                 (A) : 0.006                           
   3   BOND ANGLES            (DEGREES) : 1.100                           
   3   DIHEDRAL ANGLES        (DEGREES) : 21.80                           
   3   IMPROPER ANGLES        (DEGREES) : 0.710                           
   3                                                                      
   3  ISOTROPIC THERMAL MODEL : RESTRAINED                                
   3                                                                      
   3  ISOTROPIC THERMAL FACTOR RESTRAINTS.    RMS    SIGMA                
   3   MAIN-CHAIN BOND              (A**2) : 1.460 ; 1.500                
   3   MAIN-CHAIN ANGLE             (A**2) : 2.430 ; 2.000                
   3   SIDE-CHAIN BOND              (A**2) : 2.130 ; 2.000                
   3   SIDE-CHAIN ANGLE             (A**2) : 3.160 ; 2.500                
   3                                                                      
   3  BULK SOLVENT MODELING.                                              
   3   METHOD USED : FLAT MODEL                                           
   3   KSOL        : 0.38                                                 
   3   BSOL        : 47.13                                                
   3                                                                      
   3  NCS MODEL : NULL                                                    
   3                                                                      
   3  NCS RESTRAINTS.                         RMS   SIGMA/WEIGHT          
   3   GROUP  1  POSITIONAL            (A) : NULL  ; NULL                 
   3   GROUP  1  B-FACTOR           (A**2) : NULL  ; NULL                 
   3                                                                      
   3  PARAMETER FILE  1  : PROTEIN_PSE.PARAM                              
   3  PARAMETER FILE  2  : MOXA-LD.PARAM                                  
   3  PARAMETER FILE  3  : WATER_REP.PARAM                                
   3  PARAMETER FILE  4  : NULL                                           
   3  TOPOLOGY FILE  1   : PROTEIN-PSE.TOP                                
   3  TOPOLOGY FILE  2   : MOXA-LD.TOP                                    
   3  TOPOLOGY FILE  3   : WATER.TOP                                      
   3  TOPOLOGY FILE  4   : NULL                                           
   3                                                                      
   3  OTHER REFINEMENT REMARKS: NULL                                      
   4                                                                      
   4 1K6R COMPLIES WITH FORMAT V. 3.30, 13-JUL-11                         
 100                                                                      
 100 THIS ENTRY HAS BEEN PROCESSED BY RCSB ON 29-OCT-01.                  
 100 THE DEPOSITION ID IS D_1000014630.                                   
 200                                                                      
 200 EXPERIMENTAL DETAILS                                                 
 200  EXPERIMENT TYPE                : X-RAY DIFFRACTION                  
 200  DATE OF DATA COLLECTION        : 12-MAY-01                          
 200  TEMPERATURE           (KELVIN) : 120                                
 200  PH                             : 7                                  
 200  NUMBER OF CRYSTALS USED        : 1                                  
 200                                                                      
 200  SYNCHROTRON              (Y/N) : N                                  
 200  RADIATION SOURCE               : ROTATING ANODE                     
 200  BEAMLINE                       : NULL                               
 200  X-RAY GENERATOR MODEL          : RIGAKU RU200                       
 200  MONOCHROMATIC OR LAUE    (M/L) : M                                  
 200  WAVELENGTH OR RANGE        (A) : 1.5418                             
 200  MONOCHROMATOR                  : NULL                               
 200  OPTICS                         : NULL                               
 200                                                                      
 200  DETECTOR TYPE                  : IMAGE PLATE                        
 200  DETECTOR MANUFACTURER          : MARRESEARCH                        
 200  INTENSITY-INTEGRATION SOFTWARE : MOSFLM                             
 200  DATA SCALING SOFTWARE          : SCALA, CCP4 (SCALA)                
 200                                                                      
 200  NUMBER OF UNIQUE REFLECTIONS   : 34358                              
 200  RESOLUTION RANGE HIGH      (A) : 2.100                              
 200  RESOLUTION RANGE LOW       (A) : 32.900                             
 200  REJECTION CRITERIA  (SIGMA(I)) : NULL                               
 200                                                                      
 200 OVERALL.                                                             
 200  COMPLETENESS FOR RANGE     (%) : 97.9                               
 200  DATA REDUNDANCY                : 5.000                              
 200  R MERGE                    (I) : NULL                               
 200  R SYM                      (I) : 0.07700                            
 200  <I/SIGMA(I)> FOR THE DATA SET  : 6.4000                             
 200                                                                      
 200 IN THE HIGHEST RESOLUTION SHELL.                                     
 200  HIGHEST RESOLUTION SHELL, RANGE HIGH (A) : 2.10                     
 200  HIGHEST RESOLUTION SHELL, RANGE LOW  (A) : 2.21                     
 200  COMPLETENESS FOR SHELL     (%) : 94.5                               
 200  DATA REDUNDANCY IN SHELL       : 4.90                               
 200  R MERGE FOR SHELL          (I) : NULL                               
 200  R SYM FOR SHELL            (I) : 0.49000                            
 200  <I/SIGMA(I)> FOR SHELL         : 1.500                              
 200                                                                      
 200 DIFFRACTION PROTOCOL: SINGLE WAVELENGTH                              
 200 METHOD USED TO DETERMINE THE STRUCTURE: MOLECULAR REPLACEMENT        
 200 SOFTWARE USED: AMORE                                                 
 200 STARTING MODEL: PDB ENTRY 1K4F                                       
 200                                                                      
 200 REMARK: NULL                                                         
 280                                                                      
 280 CRYSTAL                                                              
 280 SOLVENT CONTENT, VS   (%): 53.40                                     
 280 MATTHEWS COEFFICIENT, VM (ANGSTROMS**3/DA): 2.64                     
 280                                                                      
 280 CRYSTALLIZATION CONDITIONS: AMMONIUM SULFATE, BICINE PH 9, SOAKING   
 280  AT PH 7 WITH HEPES, PEG400, MOXALACTAM, VAPOR DIFFUSION, HANGING    
 280  DROP, TEMPERATURE 293K                                              
 290                                                                      
 290 CRYSTALLOGRAPHIC SYMMETRY                                            
 290 SYMMETRY OPERATORS FOR SPACE GROUP: P 21 21 21                       
 290                                                                      
 290      SYMOP   SYMMETRY                                                
 290     NNNMMM   OPERATOR                                                
 290       1555   X,Y,Z                                                   
 290       2555   -X+1/2,-Y,Z+1/2                                         
 290       3555   -X,Y+1/2,-Z+1/2                                         
 290       4555   X+1/2,-Y+1/2,-Z                                         
 290                                                                      
 290     WHERE NNN -> OPERATOR NUMBER                                     
 290           MMM -> TRANSLATION VECTOR                                  
 290                                                                      
 290 CRYSTALLOGRAPHIC SYMMETRY TRANSFORMATIONS                            
 290 THE FOLLOWING TRANSFORMATIONS OPERATE ON THE ATOM/HETATM             
 290 RECORDS IN THIS ENTRY TO PRODUCE CRYSTALLOGRAPHICALLY                
 290 RELATED MOLECULES.                                                   
 290   SMTRY1   1  1.000000  0.000000  0.000000        0.00000            
 290   SMTRY2   1  0.000000  1.000000  0.000000        0.00000            
 290   SMTRY3   1  0.000000  0.000000  1.000000        0.00000            
 290   SMTRY1   2 -1.000000  0.000000  0.000000       24.35300            
 290   SMTRY2   2  0.000000 -1.000000  0.000000        0.00000            
 290   SMTRY3   2  0.000000  0.000000  1.000000       62.59750            
 290   SMTRY1   3 -1.000000  0.000000  0.000000        0.00000            
 290   SMTRY2   3  0.000000  1.000000  0.000000       48.00150            
 290   SMTRY3   3  0.000000  0.000000 -1.000000       62.59750            
 290   SMTRY1   4  1.000000  0.000000  0.000000       24.35300            
 290   SMTRY2   4  0.000000 -1.000000  0.000000       48.00150            
 290   SMTRY3   4  0.000000  0.000000 -1.000000        0.00000            
 290                                                                      
 290 REMARK: NULL                                                         
 300                                                                      
 300 BIOMOLECULE: 1                                                       
 300 SEE REMARK 350 FOR THE AUTHOR PROVIDED AND/OR PROGRAM                
 300 GENERATED ASSEMBLY INFORMATION FOR THE STRUCTURE IN                  
 300 THIS ENTRY. THE REMARK MAY ALSO PROVIDE INFORMATION ON               
 300 BURIED SURFACE AREA.                                                 
 300 REMARK: THE BIOLOGICAL ASSEMBLY IS A DIMER IN THE ASYMMETRIC UNIT    
 300 FORMED BY CHAINS A AND B                                             
 350                                                                      
 350 COORDINATES FOR A COMPLETE MULTIMER REPRESENTING THE KNOWN           
 350 BIOLOGICALLY SIGNIFICANT OLIGOMERIZATION STATE OF THE                
 350 MOLECULE CAN BE GENERATED BY APPLYING BIOMT TRANSFORMATIONS          
 350 GIVEN BELOW.  BOTH NON-CRYSTALLOGRAPHIC AND                          
 350 CRYSTALLOGRAPHIC OPERATIONS ARE GIVEN.                               
 350                                                                      
 350 BIOMOLECULE: 1                                                       
 350 AUTHOR DETERMINED BIOLOGICAL UNIT: DIMERIC                           
 350 SOFTWARE DETERMINED QUATERNARY STRUCTURE: DIMERIC                    
 350 SOFTWARE USED: PISA                                                  
 350 TOTAL BURIED SURFACE AREA: 3710 ANGSTROM**2                          
 350 SURFACE AREA OF THE COMPLEX: 18990 ANGSTROM**2                       
 350 CHANGE IN SOLVENT FREE ENERGY: 6.0 KCAL/MOL                          
 350 APPLY THE FOLLOWING TO CHAINS: A, B                                  
 350   BIOMT1   1  1.000000  0.000000  0.000000        0.00000            
 350   BIOMT2   1  0.000000  1.000000  0.000000        0.00000            
 350   BIOMT3   1  0.000000  0.000000  1.000000        0.00000            
 465                                                                      
 465 MISSING RESIDUES                                                     
 465 THE FOLLOWING RESIDUES WERE NOT LOCATED IN THE                       
 465 EXPERIMENT. (M=MODEL NUMBER; RES=RESIDUE NAME; C=CHAIN               
 465 IDENTIFIER; SSSEQ=SEQUENCE NUMBER; I=INSERTION CODE.)                
 465                                                                      
 465   M RES C SSSEQI                                                     
 465     GLY A   265                                                      
 465     GLY A   266                                                      
 465     VAL B    89                                                      
 465     PHE B    90                                                      
 465     LYS B    91                                                      
 465     TRP B    92                                                      
 465     ASP B    93                                                      
 465     GLY B    94                                                      
 465     LYS B    95                                                      
 465     PRO B    96                                                      
 465     ARG B    97                                                      
 465     ALA B    98                                                      
 465     MET B    99                                                      
 465     LYS B   100                                                      
 465     GLN B   101                                                      
 465     TRP B   102                                                      
 465     GLU B   103                                                      
 465     ARG B   104                                                      
 465     ASP B   105                                                      
 465     LEU B   106                                                      
 465     GLY B   265                                                      
 465     GLY B   266                                                      
 500                                                                      
 500 GEOMETRY AND STEREOCHEMISTRY                                         
 500 SUBTOPIC: TORSION ANGLES                                             
 500                                                                      
 500 TORSION ANGLES OUTSIDE THE EXPECTED RAMACHANDRAN REGIONS:            
 500 (M=MODEL NUMBER; RES=RESIDUE NAME; C=CHAIN IDENTIFIER;               
 500 SSEQ=SEQUENCE NUMBER; I=INSERTION CODE).                             
 500                                                                      
 500 STANDARD TABLE:                                                      
 500 FORMAT:(10X,I3,1X,A3,1X,A1,I4,A1,4X,F7.2,3X,F7.2)                    
 500                                                                      
 500 EXPECTED VALUES: GJ KLEYWEGT AND TA JONES (1996). PHI/PSI-           
 500 CHOLOGY: RAMACHANDRAN REVISITED. STRUCTURE 4, 1395 - 1400            
 500                                                                      
 500  M RES CSSEQI        PSI       PHI                                   
 500    SER A  46      -46.01     69.37                                   
 500    ALA A  66     -140.25     53.40                                   
 500    ARG A 104      165.60    175.73                                   
 500    ALA A 116       83.46    -62.27                                   
 500    GLU A 156       10.61   -154.09                                   
 500    ASN A 216       69.64   -168.58                                   
 500    ALA B  66     -140.76     52.86                                   
 500    LYS B  84      -82.11    -52.69                                   
 500    GLN B 113      -78.06    -99.65                                   
 500    VAL B 114       75.21    -59.43                                   
 500    SER B 115     -129.91     16.82                                   
 500    ALA B 116       63.55     77.65                                   
 500    LYS B 152        8.23   -166.79                                   
 500    GLU B 156        3.19   -152.07                                   
 500    THR B 213     -161.92   -103.17                                   
 500    GLU B 214     -102.54    -49.86                                   
 500    GLU B 229     -129.56     61.30                                   
 500                                                                      
 500 REMARK: NULL                                                         
 800                                                                      
 800 SITE                                                                 
 800 SITE_IDENTIFIER: AC1                                                 
 800 EVIDENCE_CODE: SOFTWARE                                              
 800 SITE_DESCRIPTION: BINDING SITE FOR RESIDUE MX1 A 300                 
 800                                                                      
 800 SITE_IDENTIFIER: AC2                                                 
 800 EVIDENCE_CODE: SOFTWARE                                              
 800 SITE_DESCRIPTION: BINDING SITE FOR RESIDUE MX1 B 300                 
 900                                                                      
 900 RELATED ENTRIES                                                      
 900 RELATED ID: 1K4E   RELATED DB: PDB                                   
 900 CRYSTAL STRUCTURE OF THE CLASS D BETA-LACTAMASES OXA-10 DETERMINED   
 900 BY MAD PHASING WITH SELENOMETHIONINE                                 
 900 RELATED ID: 1K4F   RELATED DB: PDB                                   
 900 CRYSTAL STRUCTURE OF THE CLQSS D BETA-LACTAMASE OXA-10 AT 1.6 A      
 900 RESOLUTION                                                           
 900 RELATED ID: 1K6S   RELATED DB: PDB                                   
 900 STRUCTURE OF THE CLASS D BETA-LACTAMASE OXA-10 IN COMPLEX WITH A     
 900 PHENYLBORONIC ACID                                                   

>  <DBREF>
 1K6R A   20   266  UNP    P14489   BLP2_PSEAE      20    266             
 1K6R B   20   266  UNP    P14489   BLP2_PSEAE      20    266             

>  <SEQADV>
 1K6R MET A   19  UNP  P14489              INITIATING METHIONINE          
 1K6R MET B   19  UNP  P14489              INITIATING METHIONINE          

>  <SEQRES>
   1 A  248  MET GLY SER ILE THR GLU ASN THR SER TRP ASN LYS GLU          
   2 A  248  PHE SER ALA GLU ALA VAL ASN GLY VAL PHE VAL LEU CYS          
   3 A  248  LYS SER SER SER LYS SER CYS ALA THR ASN ASP LEU ALA          
   4 A  248  ARG ALA SER LYS GLU TYR LEU PRO ALA SER THR PHE LYS          
   5 A  248  ILE PRO ASN ALA ILE ILE GLY LEU GLU THR GLY VAL ILE          
   6 A  248  LYS ASN GLU HIS GLN VAL PHE LYS TRP ASP GLY LYS PRO          
   7 A  248  ARG ALA MET LYS GLN TRP GLU ARG ASP LEU THR LEU ARG          
   8 A  248  GLY ALA ILE GLN VAL SER ALA VAL PRO VAL PHE GLN GLN          
   9 A  248  ILE ALA ARG GLU VAL GLY GLU VAL ARG MET GLN LYS TYR          
  10 A  248  LEU LYS LYS PHE SER TYR GLY ASN GLN ASN ILE SER GLY          
  11 A  248  GLY ILE ASP LYS PHE TRP LEU GLU GLY GLN LEU ARG ILE          
  12 A  248  SER ALA VAL ASN GLN VAL GLU PHE LEU GLU SER LEU TYR          
  13 A  248  LEU ASN LYS LEU SER ALA SER LYS GLU ASN GLN LEU ILE          
  14 A  248  VAL LYS GLU ALA LEU VAL THR GLU ALA ALA PRO GLU TYR          
  15 A  248  LEU VAL HIS SER LYS THR GLY PHE SER GLY VAL GLY THR          
  16 A  248  GLU SER ASN PRO GLY VAL ALA TRP TRP VAL GLY TRP VAL          
  17 A  248  GLU LYS GLU THR GLU VAL TYR PHE PHE ALA PHE ASN MET          
  18 A  248  ASP ILE ASP ASN GLU SER LYS LEU PRO LEU ARG LYS SER          
  19 A  248  ILE PRO THR LYS ILE MET GLU SER GLU GLY ILE ILE GLY          
  20 A  248  GLY                                                          
   1 B  248  MET GLY SER ILE THR GLU ASN THR SER TRP ASN LYS GLU          
   2 B  248  PHE SER ALA GLU ALA VAL ASN GLY VAL PHE VAL LEU CYS          
   3 B  248  LYS SER SER SER LYS SER CYS ALA THR ASN ASP LEU ALA          
   4 B  248  ARG ALA SER LYS GLU TYR LEU PRO ALA SER THR PHE LYS          
   5 B  248  ILE PRO ASN ALA ILE ILE GLY LEU GLU THR GLY VAL ILE          
   6 B  248  LYS ASN GLU HIS GLN VAL PHE LYS TRP ASP GLY LYS PRO          
   7 B  248  ARG ALA MET LYS GLN TRP GLU ARG ASP LEU THR LEU ARG          
   8 B  248  GLY ALA ILE GLN VAL SER ALA VAL PRO VAL PHE GLN GLN          
   9 B  248  ILE ALA ARG GLU VAL GLY GLU VAL ARG MET GLN LYS TYR          
  10 B  248  LEU LYS LYS PHE SER TYR GLY ASN GLN ASN ILE SER GLY          
  11 B  248  GLY ILE ASP LYS PHE TRP LEU GLU GLY GLN LEU ARG ILE          
  12 B  248  SER ALA VAL ASN GLN VAL GLU PHE LEU GLU SER LEU TYR          
  13 B  248  LEU ASN LYS LEU SER ALA SER LYS GLU ASN GLN LEU ILE          
  14 B  248  VAL LYS GLU ALA LEU VAL THR GLU ALA ALA PRO GLU TYR          
  15 B  248  LEU VAL HIS SER LYS THR GLY PHE SER GLY VAL GLY THR          
  16 B  248  GLU SER ASN PRO GLY VAL ALA TRP TRP VAL GLY TRP VAL          
  17 B  248  GLU LYS GLU THR GLU VAL TYR PHE PHE ALA PHE ASN MET          
  18 B  248  ASP ILE ASP ASN GLU SER LYS LEU PRO LEU ARG LYS SER          
  19 B  248  ILE PRO THR LYS ILE MET GLU SER GLU GLY ILE ILE GLY          
  20 B  248  GLY                                                          

>  <HET>
 MX1  A 300      29                                                       
 MX1  B 300      29                                                       

>  <HETNAM>
     MX1 (2R)-2-((R)-CARBOXY{[CARBOXY(4-HYDROXYPHENYL)                    
   2 MX1  ACETYL]AMINO}METHOXYMETHYL)-5-METHYLENE-5,6-DIHYDRO-            
   3 MX1  2H-1,3-OXAZINE-4-CARBO XYLIC ACID                               

>  <HETSYN>
     MX1 MOXALACTAM (HYDROLYZED)                                          

>  <FORMUL>
   3  MX1    2(C18 H18 N2 O10)                                            
   5  HOH   *186(H2 O)                                                    

>  <HELIX>
   1   1 TRP A   28  GLU A   35  1                                   8    
   2   2 ASP A   55  SER A   60  1                                   6    
   3   3 PRO A   65  THR A   68  5                                   4    
   4   4 PHE A   69  THR A   80  1                                  12    
   5   5 MET A   99  GLU A  103  5                                   5    
   6   6 THR A  107  VAL A  114  1                                   8    
   7   7 ALA A  116  GLY A  128  1                                  13    
   8   8 GLY A  128  PHE A  139  1                                  12    
   9   9 LYS A  152  GLY A  157  1                                   6    
  10  10 SER A  162  ASN A  176  1                                  15    
  11  11 SER A  181  LEU A  192  1                                  12    
  12  12 ASN A  243  LEU A  247  5                                   5    
  13  13 PRO A  248  GLU A  261  1                                  14    
  14  14 TRP B   28  GLU B   35  1                                   8    
  15  15 ASP B   55  SER B   60  1                                   6    
  16  16 PRO B   65  THR B   68  5                                   4    
  17  17 PHE B   69  THR B   80  1                                  12    
  18  18 THR B  107  GLN B  113  1                                   7    
  19  19 ALA B  116  GLY B  128  1                                  13    
  20  20 GLY B  128  SER B  140  1                                  13    
  21  21 ALA B  163  LEU B  175  1                                  13    
  22  22 SER B  181  LEU B  192  1                                  12    
  23  23 ASN B  243  LEU B  247  5                                   5    
  24  24 PRO B  248  GLU B  261  1                                  14    

>  <SHEET>
   1   A 7 SER A  21  GLU A  24  0                                        
   2   A 7 SER A  50  THR A  53  1  O  CYS A  51   N  THR A  23           
   3   A 7 GLY A  39  LYS A  45 -1  N  LEU A  43   O  ALA A  52           
   4   A 7 VAL A 232  ILE A 241 -1  O  ASN A 238   N  VAL A  40           
   5   A 7 GLY A 218  GLU A 227 -1  N  VAL A 226   O  TYR A 233           
   6   A 7 LEU A 201  PHE A 208 -1  N  GLY A 207   O  TRP A 221           
   7   A 7 VAL A 193  ALA A 196 -1  N  GLU A 195   O  VAL A 202           
   1   B 7 SER B  21  GLU B  24  0                                        
   2   B 7 SER B  50  THR B  53  1  O  CYS B  51   N  SER B  21           
   3   B 7 GLY B  39  LYS B  45 -1  N  LYS B  45   O  SER B  50           
   4   B 7 GLU B 231  ILE B 241 -1  O  PHE B 234   N  CYS B  44           
   5   B 7 GLY B 218  LYS B 228 -1  N  GLY B 224   O  PHE B 235           
   6   B 7 TYR B 200  PHE B 208 -1  N  GLY B 207   O  TRP B 221           
   7   B 7 VAL B 193  ALA B 196 -1  N  GLU B 195   O  VAL B 202           
   1   C 2 GLU B  62  TYR B  63  0                                        
   2   C 2 ILE B 161  SER B 162 -1  O  ILE B 161   N  TYR B  63           

>  <SSBOND>
   1 CYS A   44    CYS A   51                          1555   1555  2.03  
   2 CYS B   44    CYS B   51                          1555   1555  2.03  

>  <LINK>
       OG  SER A  67                 C1  MX1 A 300     1555   1555  1.37  
       OG  SER B  67                 C1  MX1 B 300     1555   1555  1.36  

>  <SITE>
   1 AC1 13 ALA A  66  SER A  67  LYS A  70  SER A 115                    
   2 AC1 13 VAL A 117  GLU A 129  LEU A 155  THR A 206                    
   3 AC1 13 GLY A 207  PHE A 208  SER A 209  ARG A 250                    
   4 AC1 13 HOH A 364                                                     
   1 AC2 14 SER B  67  LYS B  70  ALA B 111  SER B 115                    
   2 AC2 14 ALA B 116  VAL B 117  PHE B 120  TRP B 154                    
   3 AC2 14 LEU B 155  LYS B 205  GLU B 244  ARG B 250                    
   4 AC2 14 HOH B 327  HOH B 328                                          

>  <ORIGX1>
      1.000000  0.000000  0.000000        0.00000                         

>  <ORIGX2>
      0.000000  1.000000  0.000000        0.00000                         

>  <ORIGX3>
      0.000000  0.000000  1.000000        0.00000                         

>  <SCALE1>
      0.020531  0.000000  0.000000        0.00000                         

>  <SCALE2>
      0.000000  0.010416  0.000000        0.00000                         

>  <SCALE3>
      0.000000  0.000000  0.007988        0.00000                         

>  <MASTER>
      305    0    2   24   16    0    8    6 3969    2   64   40          

$$$$
