start_structures/Ligand_Substrate/Ligand_Complex_Stripped/MXF_4GD8.pdb
 OpenBabel08222315203D

 35 36  0  0  1  0  0  0  0  0999 V2000
   15.9990   -4.8850    8.5610 N   0  0  0  0  0  0  0  0  0  0  0  0
   16.5350   -3.7700    7.7510 C   0  0  2  0  0  0  0  0  0  0  0  0
   16.1190   -2.4310    8.3040 C   0  0  0  0  0  0  0  0  0  0  0  0
   16.6500   -1.3900    7.8650 O   0  0  0  0  0  0  0  0  0  0  0  0
   16.0810   -3.8300    6.3140 C   0  0  0  0  0  0  0  0  0  0  0  0
   15.9190   -5.1890    5.9340 O   0  0  0  0  0  0  0  0  0  0  0  0
   15.3220  -11.0990    3.6970 C   0  0  0  0  0  0  0  0  0  0  0  0
   15.6600  -10.1220    4.6400 C   0  0  0  0  0  0  0  0  0  0  0  0
   15.4710   -8.8090    4.3450 C   0  0  0  0  0  0  0  0  0  0  0  0
   15.6980   -7.6860    5.0490 C   0  0  0  0  0  0  0  0  0  0  0  0
   15.3000   -6.6510    4.2830 C   0  0  0  0  0  0  0  0  0  0  0  0
   14.7900   -7.1050    3.1160 C   0  0  0  0  0  0  0  0  0  0  0  0
   14.5370   -9.4050    2.1690 C   0  0  0  0  0  0  0  0  0  0  0  0
   14.7660  -10.7520    2.4660 C   0  0  0  0  0  0  0  0  0  0  0  0
   15.4210   -5.3840    4.7000 C   0  0  0  0  0  0  0  0  0  0  0  0
   12.9150   -6.5370    1.5620 C   0  0  1  0  0  0  0  0  0  0  0  0
   11.8810   -6.0220    2.5680 C   0  0  0  0  0  0  0  0  0  0  0  0
   12.7870   -5.7870    0.2090 C   0  0  2  0  0  0  0  0  0  0  0  0
   12.6300   -4.2630    0.4080 C   0  0  0  0  0  0  0  0  0  0  0  0
   11.6180   -6.3200   -0.6160 C   0  0  0  0  0  0  0  0  0  0  0  0
   10.8420   -8.3340   -1.4630 C   0  0  0  0  0  0  0  0  0  0  0  0
   14.8950   -8.4590    3.1640 N   0  0  0  0  0  0  0  0  0  0  0  0
   14.2800   -6.3810    2.0740 N   0  0  0  0  0  0  0  0  0  0  0  0
   11.2280   -9.5650   -1.8510 N   0  0  0  0  0  0  0  0  0  0  0  0
   15.3000   -4.4060    3.9690 O   0  0  0  0  0  0  0  0  0  0  0  0
   12.3010   -5.2830    3.4800 O   0  0  0  0  0  0  0  0  0  0  0  0
   10.6960   -6.3480    2.3530 O   0  0  0  0  0  0  0  0  0  0  0  0
   14.0970   -5.5870   -2.2270 O   0  0  0  0  0  0  0  0  0  0  0  0
   14.6160   -7.6520   -0.8640 O   0  0  0  0  0  0  0  0  0  0  0  0
   11.5150   -7.7210   -0.4450 O   0  0  0  0  0  0  0  0  0  0  0  0
    9.8790   -7.7710   -2.0000 O   0  0  0  0  0  0  0  0  0  0  0  0
   14.3910   -6.1160   -0.8000 S   0  0  0  0  0  0  0  0  0  0  0  0
   12.3770  -10.2740   -1.2390 C   0  0  0  0  0  0  0  0  0  0  0  0
   11.9060  -11.5920   -0.5980 C   0  0  0  0  0  0  0  0  0  0  0  0
   11.8840  -11.5260    0.8770 N   0  0  0  0  0  0  0  0  0  0  0  0
  2  3  1  0  0  0  0
  2  1  1  1  0  0  0
  4  3  2  0  0  0  0
  5  2  1  0  0  0  0
  6 15  1  0  0  0  0
  6  5  1  0  0  0  0
  7  8  2  0  0  0  0
  7 14  1  0  0  0  0
  8  9  1  0  0  0  0
  9 10  2  0  0  0  0
  9 22  1  0  0  0  0
 10 11  1  0  0  0  0
 11 12  2  0  0  0  0
 11 15  1  0  0  0  0
 12 22  1  0  0  0  0
 12 23  1  0  0  0  0
 13 14  2  0  0  0  0
 13 22  1  0  0  0  0
 15 25  2  0  0  0  0
 16 17  1  1  0  0  0
 16 18  1  0  0  0  0
 16 23  1  0  0  0  0
 17 26  2  0  0  0  0
 17 27  1  0  0  0  0
 18 19  1  1  0  0  0
 18 20  1  0  0  0  0
 18 32  1  0  0  0  0
 20 30  1  0  0  0  0
 21 24  1  0  0  0  0
 21 30  1  0  0  0  0
 21 31  2  0  0  0  0
 24 33  1  0  0  0  0
 28 32  1  0  0  0  0
 29 32  1  0  0  0  0
 33 34  1  0  0  0  0
 34 35  1  0  0  0  0
M  END
>  <HEADER>
    HYDROLASE/HYDROLASE INHIBITOR           31-JUL-12   4GD8              

>  <TITLE>
    SHV-1 BETA-LACTAMASE IN COMPLEX WITH PENAM SULFONE SA3-53             

>  <COMPND>
    MOL_ID: 1;                                                            
   2 MOLECULE: BETA-LACTAMASE SHV-1;                                      
   3 CHAIN: A;                                                            
   4 SYNONYM: PIT-2;                                                      
   5 EC: 3.5.2.6;                                                         
   6 ENGINEERED: YES                                                      

>  <SOURCE>
    MOL_ID: 1;                                                            
   2 ORGANISM_SCIENTIFIC: KLEBSIELLA PNEUMONIAE;                          
   3 ORGANISM_TAXID: 573;                                                 
   4 GENE: BLA, SHV1;                                                     
   5 EXPRESSION_SYSTEM: ESCHERICHIA COLI;                                 
   6 EXPRESSION_SYSTEM_TAXID: 562                                         

>  <KEYWDS>
    CLASS A BETA-LACTAMASE, HYDROLASE, HYDROLASE-HYDROLASE INHIBITOR      
   2 COMPLEX                                                              

>  <EXPDTA>
    X-RAY DIFFRACTION                                                     

>  <AUTHOR>
    P.PATTANAIK,F.VAN DEN AKKER                                           

>  <REVDAT>
   2   07-AUG-13 4GD8    1       JRNL                                     
   1   31-JUL-13 4GD8    0                                                

>  <JRNL>
      AUTH   W.KE,P.PATTANAIK,C.R.BETHEL,A.SHERI,J.D.BUYNAK,R.A.BONOMO,   
      AUTH 2 F.VAN DEN AKKER                                              
      TITL   STRUCTURES OF SHV-1 BETA-LACTAMASE WITH PENEM AND PENAM      
      TITL 2 SULFONE INHIBITORS THAT FORM CYCLIC INTERMEDIATES STABILIZED 
      TITL 3 BY CARBONYL CONJUGATION                                      
      REF    PLOS ONE                      V.   7 49035 2012              
      REFN                   ESSN 1932-6203                               
      PMID   23145056                                                     
      DOI    10.1371/JOURNAL.PONE.0049035                                 

>  <REMARK>
   2                                                                      
   2 RESOLUTION.    1.60 ANGSTROMS.                                       
   3                                                                      
   3 REFINEMENT.                                                          
   3   PROGRAM     : REFMAC 5.5.0088                                      
   3   AUTHORS     : MURSHUDOV,VAGIN,DODSON                               
   3                                                                      
   3    REFINEMENT TARGET : MAXIMUM LIKELIHOOD                            
   3                                                                      
   3  DATA USED IN REFINEMENT.                                            
   3   RESOLUTION RANGE HIGH (ANGSTROMS) : 1.60                           
   3   RESOLUTION RANGE LOW  (ANGSTROMS) : 36.89                          
   3   DATA CUTOFF            (SIGMA(F)) : 0.000                          
   3   COMPLETENESS FOR RANGE        (%) : 99.6                           
   3   NUMBER OF REFLECTIONS             : 29342                          
   3                                                                      
   3  FIT TO DATA USED IN REFINEMENT.                                     
   3   CROSS-VALIDATION METHOD          : THROUGHOUT                      
   3   FREE R VALUE TEST SET SELECTION  : RANDOM                          
   3   R VALUE     (WORKING + TEST SET) : 0.200                           
   3   R VALUE            (WORKING SET) : 0.198                           
   3   FREE R VALUE                     : 0.242                           
   3   FREE R VALUE TEST SET SIZE   (%) : 5.000                           
   3   FREE R VALUE TEST SET COUNT      : 1556                            
   3                                                                      
   3  FIT IN THE HIGHEST RESOLUTION BIN.                                  
   3   TOTAL NUMBER OF BINS USED           : 20                           
   3   BIN RESOLUTION RANGE HIGH       (A) : 1.60                         
   3   BIN RESOLUTION RANGE LOW        (A) : 1.64                         
   3   REFLECTION IN BIN     (WORKING SET) : 2141                         
   3   BIN COMPLETENESS (WORKING+TEST) (%) : 99.38                        
   3   BIN R VALUE           (WORKING SET) : 0.3300                       
   3   BIN FREE R VALUE SET COUNT          : 110                          
   3   BIN FREE R VALUE                    : 0.4000                       
   3                                                                      
   3  NUMBER OF NON-HYDROGEN ATOMS USED IN REFINEMENT.                    
   3   PROTEIN ATOMS            : 2024                                    
   3   NUCLEIC ACID ATOMS       : 0                                       
   3   HETEROGEN ATOMS          : 73                                      
   3   SOLVENT ATOMS            : 152                                     
   3                                                                      
   3  B VALUES.                                                           
   3   FROM WILSON PLOT           (A**2) : NULL                           
   3   MEAN B VALUE      (OVERALL, A**2) : 16.24                          
   3   OVERALL ANISOTROPIC B VALUE.                                       
   3    B11 (A**2) : 0.00000                                              
   3    B22 (A**2) : 0.00000                                              
   3    B33 (A**2) : 0.00000                                              
   3    B12 (A**2) : 0.00000                                              
   3    B13 (A**2) : 0.00000                                              
   3    B23 (A**2) : 0.00000                                              
   3                                                                      
   3  ESTIMATED OVERALL COORDINATE ERROR.                                 
   3   ESU BASED ON R VALUE                            (A): 0.108         
   3   ESU BASED ON FREE R VALUE                       (A): 0.110         
   3   ESU BASED ON MAXIMUM LIKELIHOOD                 (A): 0.080         
   3   ESU FOR B VALUES BASED ON MAXIMUM LIKELIHOOD (A**2): 2.315         
   3                                                                      
   3 CORRELATION COEFFICIENTS.                                            
   3   CORRELATION COEFFICIENT FO-FC      : 0.956                         
   3   CORRELATION COEFFICIENT FO-FC FREE : 0.931                         
   3                                                                      
   3  RMS DEVIATIONS FROM IDEAL VALUES        COUNT    RMS    WEIGHT      
   3   BOND LENGTHS REFINED ATOMS        (A):  2167 ; 0.017 ; 0.022       
   3   BOND LENGTHS OTHERS               (A):  NULL ;  NULL ;  NULL       
   3   BOND ANGLES REFINED ATOMS   (DEGREES):  2942 ; 1.741 ; 2.005       
   3   BOND ANGLES OTHERS          (DEGREES):  NULL ;  NULL ;  NULL       
   3   TORSION ANGLES, PERIOD 1    (DEGREES):   273 ; 6.191 ; 5.000       
   3   TORSION ANGLES, PERIOD 2    (DEGREES):    91 ;35.926 ;23.077       
   3   TORSION ANGLES, PERIOD 3    (DEGREES):   369 ;13.265 ;15.000       
   3   TORSION ANGLES, PERIOD 4    (DEGREES):    24 ;17.386 ;15.000       
   3   CHIRAL-CENTER RESTRAINTS       (A**3):   343 ; 0.112 ; 0.200       
   3   GENERAL PLANES REFINED ATOMS      (A):  1596 ; 0.008 ; 0.021       
   3   GENERAL PLANES OTHERS             (A):  NULL ;  NULL ;  NULL       
   3   NON-BONDED CONTACTS REFINED ATOMS (A):  NULL ;  NULL ;  NULL       
   3   NON-BONDED CONTACTS OTHERS        (A):  NULL ;  NULL ;  NULL       
   3   NON-BONDED TORSION REFINED ATOMS  (A):  NULL ;  NULL ;  NULL       
   3   NON-BONDED TORSION OTHERS         (A):  NULL ;  NULL ;  NULL       
   3   H-BOND (X...Y) REFINED ATOMS      (A):  NULL ;  NULL ;  NULL       
   3   H-BOND (X...Y) OTHERS             (A):  NULL ;  NULL ;  NULL       
   3   POTENTIAL METAL-ION REFINED ATOMS (A):  NULL ;  NULL ;  NULL       
   3   POTENTIAL METAL-ION OTHERS        (A):  NULL ;  NULL ;  NULL       
   3   SYMMETRY VDW REFINED ATOMS        (A):  NULL ;  NULL ;  NULL       
   3   SYMMETRY VDW OTHERS               (A):  NULL ;  NULL ;  NULL       
   3   SYMMETRY H-BOND REFINED ATOMS     (A):  NULL ;  NULL ;  NULL       
   3   SYMMETRY H-BOND OTHERS            (A):  NULL ;  NULL ;  NULL       
   3   SYMMETRY METAL-ION REFINED ATOMS  (A):  NULL ;  NULL ;  NULL       
   3   SYMMETRY METAL-ION OTHERS         (A):  NULL ;  NULL ;  NULL       
   3                                                                      
   3  ISOTROPIC THERMAL FACTOR RESTRAINTS.     COUNT   RMS    WEIGHT      
   3   MAIN-CHAIN BOND REFINED ATOMS  (A**2):  1339 ; 3.153 ; 1.500       
   3   MAIN-CHAIN BOND OTHER ATOMS    (A**2):  NULL ;  NULL ;  NULL       
   3   MAIN-CHAIN ANGLE REFINED ATOMS (A**2):  2150 ; 4.092 ; 2.000       
   3   MAIN-CHAIN ANGLE OTHER ATOMS   (A**2):  NULL ;  NULL ;  NULL       
   3   SIDE-CHAIN BOND REFINED ATOMS  (A**2):   828 ; 7.132 ; 3.000       
   3   SIDE-CHAIN BOND OTHER ATOMS    (A**2):  NULL ;  NULL ;  NULL       
   3   SIDE-CHAIN ANGLE REFINED ATOMS (A**2):   788 ; 9.454 ; 4.500       
   3   SIDE-CHAIN ANGLE OTHER ATOMS   (A**2):  NULL ;  NULL ;  NULL       
   3   LONG RANGE B REFINED ATOMS     (A**2):  NULL ;  NULL ;  NULL       
   3   LONG RANGE B OTHER ATOMS       (A**2):  NULL ;  NULL ;  NULL       
   3                                                                      
   3 ANISOTROPIC THERMAL FACTOR RESTRAINTS.    COUNT   RMS   WEIGHT       
   3   RIGID-BOND RESTRAINTS          (A**2):  NULL ;  NULL ;  NULL       
   3   SPHERICITY; FREE ATOMS         (A**2):  NULL ;  NULL ;  NULL       
   3   SPHERICITY; BONDED ATOMS       (A**2):  NULL ;  NULL ;  NULL       
   3                                                                      
   3  NCS RESTRAINTS STATISTICS                                           
   3   NUMBER OF DIFFERENT NCS GROUPS : NULL                              
   3                                                                      
   3  TLS DETAILS                                                         
   3   NUMBER OF TLS GROUPS  : NULL                                       
   3                                                                      
   3  BULK SOLVENT MODELLING.                                             
   3   METHOD USED : MASK                                                 
   3   PARAMETERS FOR MASK CALCULATION                                    
   3   VDW PROBE RADIUS   : 1.40                                          
   3   ION PROBE RADIUS   : 0.80                                          
   3   SHRINKAGE RADIUS   : 0.80                                          
   3                                                                      
   3  OTHER REFINEMENT REMARKS: HYDROGENS HAVE BEEN ADDED IN THE RIDING   
   3  POSITIONS                                                           
   4                                                                      
   4 4GD8 COMPLIES WITH FORMAT V. 3.30, 13-JUL-11                         
 100                                                                      
 100 THIS ENTRY HAS BEEN PROCESSED BY RCSB ON 26-OCT-12.                  
 100 THE RCSB ID CODE IS RCSB074036.                                      
 200                                                                      
 200 EXPERIMENTAL DETAILS                                                 
 200  EXPERIMENT TYPE                : X-RAY DIFFRACTION                  
 200  DATE OF DATA COLLECTION        : 24-APR-05                          
 200  TEMPERATURE           (KELVIN) : 100                                
 200  PH                             : 7.                                 
 200  NUMBER OF CRYSTALS USED        : 1                                  
 200                                                                      
 200  SYNCHROTRON              (Y/N) : Y                                  
 200  RADIATION SOURCE               : ALS                                
 200  BEAMLINE                       : 4.2.2                              
 200  X-RAY GENERATOR MODEL          : NULL                               
 200  MONOCHROMATIC OR LAUE    (M/L) : M                                  
 200  WAVELENGTH OR RANGE        (A) : 0.979                              
 200  MONOCHROMATOR                  : MONOCHROMATOR                      
 200  OPTICS                         : NULL                               
 200                                                                      
 200  DETECTOR TYPE                  : CCD                                
 200  DETECTOR MANUFACTURER          : NOIR-1                             
 200  INTENSITY-INTEGRATION SOFTWARE : D*TREK                             
 200  DATA SCALING SOFTWARE          : D*TREK                             
 200                                                                      
 200  NUMBER OF UNIQUE REFLECTIONS   : 29342                              
 200  RESOLUTION RANGE HIGH      (A) : 1.600                              
 200  RESOLUTION RANGE LOW       (A) : 36.890                             
 200  REJECTION CRITERIA  (SIGMA(I)) : 0.000                              
 200                                                                      
 200 OVERALL.                                                             
 200  COMPLETENESS FOR RANGE     (%) : 99.6                               
 200  DATA REDUNDANCY                : 3.500                              
 200  R MERGE                    (I) : 0.07000                            
 200  R SYM                      (I) : NULL                               
 200  <I/SIGMA(I)> FOR THE DATA SET  : 8.3000                             
 200                                                                      
 200 IN THE HIGHEST RESOLUTION SHELL.                                     
 200  HIGHEST RESOLUTION SHELL, RANGE HIGH (A) : 1.60                     
 200  HIGHEST RESOLUTION SHELL, RANGE LOW  (A) : 1.64                     
 200  COMPLETENESS FOR SHELL     (%) : 99.5                               
 200  DATA REDUNDANCY IN SHELL       : 3.30                               
 200  R MERGE FOR SHELL          (I) : 0.28000                            
 200  R SYM FOR SHELL            (I) : NULL                               
 200  <I/SIGMA(I)> FOR SHELL         : 2.500                              
 200                                                                      
 200 DIFFRACTION PROTOCOL: SINGLE WAVELENGTH                              
 200 METHOD USED TO DETERMINE THE STRUCTURE: ISOMORPHOUS REPLACEMENT      
 200 SOFTWARE USED: NULL                                                  
 200 STARTING MODEL: NULL                                                 
 200                                                                      
 200 REMARK: NULL                                                         
 280                                                                      
 280 CRYSTAL                                                              
 280 SOLVENT CONTENT, VS   (%): 32.88                                     
 280 MATTHEWS COEFFICIENT, VM (ANGSTROMS**3/DA): 1.83                     
 280                                                                      
 280 CRYSTALLIZATION CONDITIONS: 25% PEG 6000, 100MM HEPES PH7.0,         
 280  0.56MM CYMAL-6, VAPOR DIFFUSION, SITTING DROP, TEMPERATURE 293K     
 290                                                                      
 290 CRYSTALLOGRAPHIC SYMMETRY                                            
 290 SYMMETRY OPERATORS FOR SPACE GROUP: P 21 21 21                       
 290                                                                      
 290      SYMOP   SYMMETRY                                                
 290     NNNMMM   OPERATOR                                                
 290       1555   X,Y,Z                                                   
 290       2555   -X+1/2,-Y,Z+1/2                                         
 290       3555   -X,Y+1/2,-Z+1/2                                         
 290       4555   X+1/2,-Y+1/2,-Z                                         
 290                                                                      
 290     WHERE NNN -> OPERATOR NUMBER                                     
 290           MMM -> TRANSLATION VECTOR                                  
 290                                                                      
 290 CRYSTALLOGRAPHIC SYMMETRY TRANSFORMATIONS                            
 290 THE FOLLOWING TRANSFORMATIONS OPERATE ON THE ATOM/HETATM             
 290 RECORDS IN THIS ENTRY TO PRODUCE CRYSTALLOGRAPHICALLY                
 290 RELATED MOLECULES.                                                   
 290   SMTRY1   1  1.000000  0.000000  0.000000        0.00000            
 290   SMTRY2   1  0.000000  1.000000  0.000000        0.00000            
 290   SMTRY3   1  0.000000  0.000000  1.000000        0.00000            
 290   SMTRY1   2 -1.000000  0.000000  0.000000       24.69700            
 290   SMTRY2   2  0.000000 -1.000000  0.000000        0.00000            
 290   SMTRY3   2  0.000000  0.000000  1.000000       41.82450            
 290   SMTRY1   3 -1.000000  0.000000  0.000000        0.00000            
 290   SMTRY2   3  0.000000  1.000000  0.000000       27.73000            
 290   SMTRY3   3  0.000000  0.000000 -1.000000       41.82450            
 290   SMTRY1   4  1.000000  0.000000  0.000000       24.69700            
 290   SMTRY2   4  0.000000 -1.000000  0.000000       27.73000            
 290   SMTRY3   4  0.000000  0.000000 -1.000000        0.00000            
 290                                                                      
 290 REMARK: NULL                                                         
 300                                                                      
 300 BIOMOLECULE: 1                                                       
 300 SEE REMARK 350 FOR THE AUTHOR PROVIDED AND/OR PROGRAM                
 300 GENERATED ASSEMBLY INFORMATION FOR THE STRUCTURE IN                  
 300 THIS ENTRY. THE REMARK MAY ALSO PROVIDE INFORMATION ON               
 300 BURIED SURFACE AREA.                                                 
 350                                                                      
 350 COORDINATES FOR A COMPLETE MULTIMER REPRESENTING THE KNOWN           
 350 BIOLOGICALLY SIGNIFICANT OLIGOMERIZATION STATE OF THE                
 350 MOLECULE CAN BE GENERATED BY APPLYING BIOMT TRANSFORMATIONS          
 350 GIVEN BELOW.  BOTH NON-CRYSTALLOGRAPHIC AND                          
 350 CRYSTALLOGRAPHIC OPERATIONS ARE GIVEN.                               
 350                                                                      
 350 BIOMOLECULE: 1                                                       
 350 AUTHOR DETERMINED BIOLOGICAL UNIT: MONOMERIC                         
 350 SOFTWARE DETERMINED QUATERNARY STRUCTURE: MONOMERIC                  
 350 SOFTWARE USED: PISA                                                  
 350 APPLY THE FOLLOWING TO CHAINS: A                                     
 350   BIOMT1   1  1.000000  0.000000  0.000000        0.00000            
 350   BIOMT2   1  0.000000  1.000000  0.000000        0.00000            
 350   BIOMT3   1  0.000000  0.000000  1.000000        0.00000            
 465                                                                      
 465 MISSING RESIDUES                                                     
 465 THE FOLLOWING RESIDUES WERE NOT LOCATED IN THE                       
 465 EXPERIMENT. (M=MODEL NUMBER; RES=RESIDUE NAME; C=CHAIN               
 465 IDENTIFIER; SSSEQ=SEQUENCE NUMBER; I=INSERTION CODE.)                
 465                                                                      
 465   M RES C SSSEQI                                                     
 465     MET A     5                                                      
 465     ARG A     6                                                      
 465     TYR A     7                                                      
 465     ILE A     8                                                      
 465     ARG A     9                                                      
 465     LEU A    10                                                      
 465     CYS A    11                                                      
 465     ILE A    12                                                      
 465     ILE A    13                                                      
 465     SER A    14                                                      
 465     LEU A    15                                                      
 465     LEU A    16                                                      
 465     ALA A    17                                                      
 465     THR A    18                                                      
 465     LEU A    19                                                      
 465     PRO A    20                                                      
 465     LEU A    21                                                      
 465     ALA A    22                                                      
 465     VAL A    23                                                      
 465     HIS A    24                                                      
 465     ALA A    25                                                      
 500                                                                      
 500 GEOMETRY AND STEREOCHEMISTRY                                         
 500 SUBTOPIC: COVALENT BOND ANGLES                                       
 500                                                                      
 500 THE STEREOCHEMICAL PARAMETERS OF THE FOLLOWING RESIDUES              
 500 HAVE VALUES WHICH DEVIATE FROM EXPECTED VALUES BY MORE               
 500 THAN 6*RMSD (M=MODEL NUMBER; RES=RESIDUE NAME; C=CHAIN               
 500 IDENTIFIER; SSEQ=SEQUENCE NUMBER; I=INSERTION CODE).                 
 500                                                                      
 500 STANDARD TABLE:                                                      
 500 FORMAT: (10X,I3,1X,A3,1X,A1,I4,A1,3(1X,A4,2X),12X,F5.1)              
 500                                                                      
 500 EXPECTED VALUES PROTEIN: ENGH AND HUBER, 1999                        
 500 EXPECTED VALUES NUCLEIC ACID: CLOWNEY ET AL 1996                     
 500                                                                      
 500  M RES CSSEQI ATM1   ATM2   ATM3                                     
 500    ARG A  65   NE  -  CZ  -  NH1 ANGL. DEV. =   3.8 DEGREES          
 500    ARG A  65   NE  -  CZ  -  NH2 ANGL. DEV. =  -3.4 DEGREES          
 500    ASP A 176   CB  -  CG  -  OD1 ANGL. DEV. =   5.4 DEGREES          
 500                                                                      
 500 REMARK: NULL                                                         
 500                                                                      
 500 GEOMETRY AND STEREOCHEMISTRY                                         
 500 SUBTOPIC: TORSION ANGLES                                             
 500                                                                      
 500 TORSION ANGLES OUTSIDE THE EXPECTED RAMACHANDRAN REGIONS:            
 500 (M=MODEL NUMBER; RES=RESIDUE NAME; C=CHAIN IDENTIFIER;               
 500 SSEQ=SEQUENCE NUMBER; I=INSERTION CODE).                             
 500                                                                      
 500 STANDARD TABLE:                                                      
 500 FORMAT:(10X,I3,1X,A3,1X,A1,I4,A1,4X,F7.2,3X,F7.2)                    
 500                                                                      
 500 EXPECTED VALUES: GJ KLEYWEGT AND TA JONES (1996). PHI/PSI-           
 500 CHOLOGY: RAMACHANDRAN REVISITED. STRUCTURE 4, 1395 - 1400            
 500                                                                      
 500  M RES CSSEQI        PSI       PHI                                   
 500    MET A  69     -132.28     53.75                                   
 500    TYR A 105       87.94     77.47                                   
 500    VAL A 216      -75.81   -114.80                                   
 500                                                                      
 500 REMARK: NULL                                                         
 525                                                                      
 525 SOLVENT                                                              
 525                                                                      
 525 THE SOLVENT MOLECULES HAVE CHAIN IDENTIFIERS THAT                    
 525 INDICATE THE POLYMER CHAIN WITH WHICH THEY ARE MOST                  
 525 CLOSELY ASSOCIATED. THE REMARK LISTS ALL THE SOLVENT                 
 525 MOLECULES WHICH ARE MORE THAN 5A AWAY FROM THE                       
 525 NEAREST POLYMER CHAIN (M = MODEL NUMBER;                             
 525 RES=RESIDUE NAME; C=CHAIN IDENTIFIER; SSEQ=SEQUENCE                  
 525 NUMBER; I=INSERTION CODE):                                           
 525                                                                      
 525  M RES CSSEQI                                                        
 525    HOH A 454        DISTANCE =  6.06 ANGSTROMS                       
 610                                                                      
 610 MISSING HETEROATOM                                                   
 610 THE FOLLOWING RESIDUES HAVE MISSING ATOMS (M=MODEL NUMBER;           
 610 RES=RESIDUE NAME; C=CHAIN IDENTIFIER; SSEQ=SEQUENCE NUMBER;          
 610 I=INSERTION CODE):                                                   
 610   M RES C SSEQI                                                      
 610     MA4 A  303                                                       
 800                                                                      
 800 SITE                                                                 
 800 SITE_IDENTIFIER: AC1                                                 
 800 EVIDENCE_CODE: SOFTWARE                                              
 800 SITE_DESCRIPTION: BINDING SITE FOR RESIDUE MXF A 301                 
 800                                                                      
 800 SITE_IDENTIFIER: AC2                                                 
 800 EVIDENCE_CODE: SOFTWARE                                              
 800 SITE_DESCRIPTION: BINDING SITE FOR RESIDUE MA4 A 302                 
 800                                                                      
 800 SITE_IDENTIFIER: AC3                                                 
 800 EVIDENCE_CODE: SOFTWARE                                              
 800 SITE_DESCRIPTION: BINDING SITE FOR RESIDUE MA4 A 303                 
 900                                                                      
 900 RELATED ENTRIES                                                      
 900 RELATED ID: 4GD6   RELATED DB: PDB                                   
 900 SHV-1 BETA-LACTAMASE IN COMPLEX WITH PENAM SULFONE SA1-204           
 900 RELATED ID: 3D4F   RELATED DB: PDB                                   
 900 SHV-1 BETA-LACTAMASE IN COMPLEX WITH PENAM SULFONE LN1-255           
 900 RELATED ID: 4GDB   RELATED DB: PDB                                   

>  <DBREF>
 4GD8 A    5   292  UNP    P0AD64   BLA1_KLEPN       1    286             

>  <SEQRES>
   1 A  286  MET ARG TYR ILE ARG LEU CYS ILE ILE SER LEU LEU ALA          
   2 A  286  THR LEU PRO LEU ALA VAL HIS ALA SER PRO GLN PRO LEU          
   3 A  286  GLU GLN ILE LYS LEU SER GLU SER GLN LEU SER GLY ARG          
   4 A  286  VAL GLY MET ILE GLU MET ASP LEU ALA SER GLY ARG THR          
   5 A  286  LEU THR ALA TRP ARG ALA ASP GLU ARG PHE PRO MET MET          
   6 A  286  SER THR PHE LYS VAL VAL LEU CYS GLY ALA VAL LEU ALA          
   7 A  286  ARG VAL ASP ALA GLY ASP GLU GLN LEU GLU ARG LYS ILE          
   8 A  286  HIS TYR ARG GLN GLN ASP LEU VAL ASP TYR SER PRO VAL          
   9 A  286  SER GLU LYS HIS LEU ALA ASP GLY MET THR VAL GLY GLU          
  10 A  286  LEU CYS ALA ALA ALA ILE THR MET SER ASP ASN SER ALA          
  11 A  286  ALA ASN LEU LEU LEU ALA THR VAL GLY GLY PRO ALA GLY          
  12 A  286  LEU THR ALA PHE LEU ARG GLN ILE GLY ASP ASN VAL THR          
  13 A  286  ARG LEU ASP ARG TRP GLU THR GLU LEU ASN GLU ALA LEU          
  14 A  286  PRO GLY ASP ALA ARG ASP THR THR THR PRO ALA SER MET          
  15 A  286  ALA ALA THR LEU ARG LYS LEU LEU THR SER GLN ARG LEU          
  16 A  286  SER ALA ARG SER GLN ARG GLN LEU LEU GLN TRP MET VAL          
  17 A  286  ASP ASP ARG VAL ALA GLY PRO LEU ILE ARG SER VAL LEU          
  18 A  286  PRO ALA GLY TRP PHE ILE ALA ASP LYS THR GLY ALA GLY          
  19 A  286  GLU ARG GLY ALA ARG GLY ILE VAL ALA LEU LEU GLY PRO          
  20 A  286  ASN ASN LYS ALA GLU ARG ILE VAL VAL ILE TYR LEU ARG          
  21 A  286  ASP THR PRO ALA SER MET ALA GLU ARG ASN GLN GLN ILE          
  22 A  286  ALA GLY ILE GLY ALA ALA LEU ILE GLU HIS TRP GLN ARG          

>  <HET>
 MXF  A 301      29                                                       
 MA4  A 302      35                                                       
 MA4  A 303       9                                                       

>  <HETNAM>
     MXF (2S,3R)-4-(2-AMINOETHYLCARBAMOYLOXY)-2-[(2-                      
   2 MXF  METHANOYLINDOLIZIN-3-YL)AMINO]-3-METHYL-3-SULFINO-              
   3 MXF  BUTANOIC ACID                                                   
     MA4 CYCLOHEXYL-HEXYL-BETA-D-MALTOSIDE                                

>  <HETSYN>
     MXF PENAM SULFONE SA3-53, OPEN FORM                                  

>  <FORMUL>
   2  MXF    C17 H22 N4 O7 S                                              
   3  MA4    2(C24 H44 O11)                                               
   5  HOH   *152(H2 O)                                                    

>  <HELIX>
   1   1 GLN A   28  SER A   41  1                                  14    
   2   2 THR A   71  ALA A   86  1                                  16    
   3   3 ARG A   98  LEU A  102  5                                   5    
   4   4 VAL A  108  HIS A  112  5                                   5    
   5   5 VAL A  119  SER A  130  1                                  12    
   6   6 ASP A  131  VAL A  142  1                                  12    
   7   7 GLY A  143  ILE A  155  1                                  13    
   8   8 THR A  167  GLU A  171  5                                   5    
   9   9 THR A  182  SER A  196  1                                  15    
  10  10 SER A  200  ASP A  213  1                                  14    
  11  11 VAL A  216  LEU A  225  1                                  10    
  12  12 GLU A  240  GLY A  242  5                                   3    
  13  13 SER A  271  HIS A  289  1                                  19    

>  <SHEET>
   1   A 5 THR A  56  TRP A  60  0                                        
   2   A 5 ARG A  43  ASP A  50 -1  N  MET A  46   O  TRP A  60           
   3   A 5 ARG A 259  ARG A 266 -1  O  ILE A 260   N  MET A  49           
   4   A 5 ARG A 244  GLY A 251 -1  N  ARG A 244   O  LEU A 265           
   5   A 5 PHE A 230  ALA A 237 -1  N  PHE A 230   O  GLY A 251           
   1   B 2 PHE A  66  PRO A  67  0                                        
   2   B 2 THR A 180  THR A 181 -1  O  THR A 181   N  PHE A  66           
   1   C 2 LYS A  94  ILE A  95  0                                        
   2   C 2 MET A 117  THR A 118 -1  O  MET A 117   N  ILE A  95           

>  <SSBOND>
   1 CYS A   77    CYS A  123                          1555   1555  2.04  

>  <LINK>
       OG  SER A  70                 C10 MXF A 301     1555   1555  1.35  

>  <CISPEP>
   1 GLU A  166    THR A  167          0         1.28                     

>  <SITE>
   1 AC1 12 SER A  70  TYR A 105  SER A 130  VAL A 216                    
   2 AC1 12 LYS A 234  THR A 235  GLY A 236  ALA A 237                    
   3 AC1 12 ARG A 244  HOH A 423  HOH A 476  HOH A 501                    
   1 AC2 14 ARG A  93  HIS A  96  ARG A  98  VAL A 224                    
   2 AC2 14 PRO A 226  ALA A 248  VAL A 261  ILE A 263                    
   3 AC2 14 ALA A 280  ALA A 284  GLU A 288  HOH A 491                    
   4 AC2 14 HOH A 515  HOH A 539                                          
   1 AC3  3 ARG A 244  ASN A 276  ILE A 279                               

>  <ORIGX1>
      1.000000  0.000000  0.000000        0.00000                         

>  <ORIGX2>
      0.000000  1.000000  0.000000        0.00000                         

>  <ORIGX3>
      0.000000  0.000000  1.000000        0.00000                         

>  <SCALE1>
      0.020245  0.000000  0.000000        0.00000                         

>  <SCALE2>
      0.000000  0.018031  0.000000        0.00000                         

>  <SCALE3>
      0.000000  0.000000  0.011955        0.00000                         

>  <MASTER>
      344    0    3   13    9    0    8    6 2249    1   76   22          

$$$$
