start_structures/Ligand_Substrate/Ligand_Complex_Stripped/MXS_3FV7.pdb
 OpenBabel08222315213D

 33 34  0  0  1  0  0  0  0  0999 V2000
  100.3950   27.2160   28.1190 N   0  0  0  0  0  0  0  0  0  0  0  0
  100.7500   26.6370   29.4140 C   0  0  2  0  0  0  0  0  0  0  0  0
   99.7900   25.6210   30.0270 C   0  0  0  0  0  0  0  0  0  0  0  0
  100.1480   24.9760   31.0230 O   0  0  0  0  0  0  0  0  0  0  0  0
  101.0260   27.7490   30.4400 C   0  0  0  0  0  0  0  0  0  0  0  0
  102.1480   28.5440   30.0650 O   0  0  0  0  0  0  0  0  0  0  0  0
  107.1830   32.7590   27.1710 C   0  0  0  0  0  0  0  0  0  0  0  0
  106.4370   31.4620   27.1960 C   0  0  0  0  0  0  0  0  0  0  0  0
  105.1910   31.3880   28.0080 C   0  0  0  0  0  0  0  0  0  0  0  0
  104.2760   30.2960   28.2320 C   0  0  0  0  0  0  0  0  0  0  0  0
  103.2970   30.7160   29.0610 C   0  0  0  0  0  0  0  0  0  0  0  0
  103.5160   32.2150   29.4630 C   0  0  0  0  0  0  0  0  0  0  0  0
  105.4630   33.8310   28.7150 C   0  0  0  0  0  0  0  0  0  0  0  0
  106.6950   33.9550   27.9280 C   0  0  0  0  0  0  0  0  0  0  0  0
  102.0290   29.9080   29.6360 C   0  0  1  0  0  0  0  0  0  0  0  0
  102.6690   33.4110   31.7520 C   0  0  1  0  0  0  0  0  0  0  0  0
  103.4000   34.7670   31.9380 C   0  0  0  0  0  0  0  0  0  0  0  0
  101.1380   33.4170   32.2000 C   0  0  0  0  0  0  0  0  0  0  0  0
  100.4030   34.7550   31.8070 C   0  0  0  0  0  0  0  0  0  0  0  0
  101.0610   33.2140   33.7540 C   0  0  0  0  0  0  0  0  0  0  0  0
  109.1880   32.0920   25.6400 C   0  0  0  0  0  0  0  0  0  0  0  0
  109.2620   30.0030   24.3060 C   0  0  0  0  0  0  0  0  0  0  0  0
  104.7920   32.5420   28.7030 N   0  0  0  0  0  0  0  0  0  0  0  0
  102.7290   33.0200   30.3030 N   0  0  0  0  0  0  0  0  0  0  0  0
  108.6060   31.1760   24.7320 O   0  0  0  0  0  0  0  0  0  0  0  0
  101.2080   29.9700   28.4350 O   0  0  0  0  0  0  0  0  0  0  0  0
  103.9260   35.3930   31.0390 O   0  0  0  0  0  0  0  0  0  0  0  0
  103.4840   35.4070   33.3010 O   0  0  0  0  0  0  0  0  0  0  0  0
   98.9020   31.9120   32.0120 O   0  0  0  0  0  0  0  0  0  0  0  0
  101.0860   30.6210   31.4770 O   0  0  0  0  0  0  0  0  0  0  0  0
  108.3480   32.8110   26.4330 N   0  0  0  0  0  0  0  0  0  0  0  0
  110.4080   32.2400   25.7390 O   0  0  0  0  0  0  0  0  0  0  0  0
  100.2170   32.0610   31.3640 S   0  0  0  0  0  0  0  0  0  0  0  0
  2  1  1  6  0  0  0
  2  3  1  0  0  0  0
  2  5  1  0  0  0  0
  3  4  2  0  0  0  0
  6  5  1  0  0  0  0
  7  8  2  0  0  0  0
  7 14  1  0  0  0  0
  7 31  1  0  0  0  0
  8  9  1  0  0  0  0
  9 10  2  0  0  0  0
  9 23  1  0  0  0  0
 10 11  1  0  0  0  0
 11 12  2  0  0  0  0
 11 15  1  0  0  0  0
 12 23  1  0  0  0  0
 12 24  1  0  0  0  0
 13 14  2  0  0  0  0
 13 23  1  0  0  0  0
 15 26  1  6  0  0  0
 15  6  1  0  0  0  0
 16 17  1  6  0  0  0
 16 18  1  0  0  0  0
 16 24  1  0  0  0  0
 17 27  2  0  0  0  0
 17 28  1  0  0  0  0
 18 19  1  0  0  0  0
 18 20  1  0  0  0  0
 18 33  1  0  0  0  0
 21 25  1  0  0  0  0
 21 31  1  0  0  0  0
 21 32  2  0  0  0  0
 22 25  1  0  0  0  0
 29 33  1  0  0  0  0
 30 33  1  0  0  0  0
M  END
>  <HEADER>
    HYDROLASE                               15-JAN-09   3FV7              

>  <TITLE>
    OXA-24 BETA-LACTAMASE COMPLEX WITH SA4-44 INHIBITOR                   

>  <COMPND>
    MOL_ID: 1;                                                            
   2 MOLECULE: BETA-LACTAMASE OXA-24;                                     
   3 CHAIN: A;                                                            
   4 FRAGMENT: RESIDUES 32-275;                                           
   5 SYNONYM: BETA-LACTAMASE OXA-33, OXA40, CARBAPENEM-HYDROLYZING BETA-  
   6 LACTAMASE OXA-40, BETA-LACTAMASE, CARBAPENEMASE;                     
   7 EC: 3.5.2.6;                                                         
   8 ENGINEERED: YES                                                      

>  <SOURCE>
    MOL_ID: 1;                                                            
   2 ORGANISM_SCIENTIFIC: ACINETOBACTER BAUMANNII;                        
   3 ORGANISM_TAXID: 470;                                                 
   4 GENE: BLAOXA-33, BLA-OXA-40, OXA-24, OXA40;                          
   5 EXPRESSION_SYSTEM: ESCHERICHIA COLI;                                 
   6 EXPRESSION_SYSTEM_TAXID: 562;                                        
   7 EXPRESSION_SYSTEM_STRAIN: BL21DE3;                                   
   8 EXPRESSION_SYSTEM_VECTOR_TYPE: PLASMID;                              
   9 EXPRESSION_SYSTEM_PLASMID: PGEX-6P-1                                 

>  <KEYWDS>
    B-LACTAMASES, ENZYME MECHANISM, CARBAPENEM, INHIBITORS, HYDROLASE     

>  <EXPDTA>
    X-RAY DIFFRACTION                                                     

>  <AUTHOR>
    G.BOU,E.SANTILLANA,A.SHERI,A.BECEIRO,J.M.SAMPSON,M.KALP,C.R.BETHEL,   
   2 A.M.DISTLER,S.M.DRAWZ,S.R.PAGADALA,F.VAN DEN AKKER,R.A.BONOMO,       
   3 A.ROMERO,J.D.BUYNAK                                                  

>  <REVDAT>
   2   13-OCT-10 3FV7    1       JRNL                                     
   1   02-FEB-10 3FV7    0                                                

>  <JRNL>
      AUTH   G.BOU,E.SANTILLANA,A.SHERI,A.BECEIRO,J.M.SAMPSON,M.KALP,     
      AUTH 2 C.R.BETHEL,A.M.DISTLER,S.M.DRAWZ,S.R.PAGADALA,               
      AUTH 3 F.VAN DEN AKKER,R.A.BONOMO,A.ROMERO,J.D.BUYNAK               
      TITL   DESIGN, SYNTHESIS, AND CRYSTAL STRUCTURES OF                 
      TITL 2 6-ALKYLIDENE-2'-SUBSTITUTED PENICILLANIC ACID SULFONES AS    
      TITL 3 POTENT INHIBITORS OF ACINETOBACTER BAUMANNII OXA-24          
      TITL 4 CARBAPENEMASE.                                               
      REF    J.AM.CHEM.SOC.                V. 132 13320 2010              
      REFN                   ISSN 0002-7863                               
      PMID   20822105                                                     
      DOI    10.1021/JA104092Z                                            

>  <REMARK>
   1                                                                      
   1 REFERENCE 1                                                          
   1  AUTH   E.SANTILLANA,A.BECEIRO,G.BOU,A.ROMERO                        
   1  TITL   CRYSTAL STRUCTURE OF THE CARBAPENEMASE OXA-24 REVEALS        
   1  TITL 2 INSIGHTS INTO THE MECHANISM OF CARBAPENEM HYDROLYSIS.        
   1  REF    PROC.NATL.ACAD.SCI.USA        V. 104  5354 2007              
   1  REFN                   ISSN 0027-8424                               
   1  PMID   17374723                                                     
   1  DOI    10.1073/PNAS.0607557104                                      
   2                                                                      
   2 RESOLUTION.    2.00 ANGSTROMS.                                       
   3                                                                      
   3 REFINEMENT.                                                          
   3   PROGRAM     : CNS 1.2                                              
   3   AUTHORS     : BRUNGER,ADAMS,CLORE,DELANO,GROS,GROSSE-              
   3               : KUNSTLEVE,JIANG,KUSZEWSKI,NILGES,PANNU,              
   3               : READ,RICE,SIMONSON,WARREN                            
   3                                                                      
   3  REFINEMENT TARGET : ENGH & HUBER                                    
   3                                                                      
   3  DATA USED IN REFINEMENT.                                            
   3   RESOLUTION RANGE HIGH (ANGSTROMS) : 2.00                           
   3   RESOLUTION RANGE LOW  (ANGSTROMS) : 45.80                          
   3   DATA CUTOFF            (SIGMA(F)) : 0.000                          
   3   DATA CUTOFF HIGH         (ABS(F)) : NULL                           
   3   DATA CUTOFF LOW          (ABS(F)) : NULL                           
   3   COMPLETENESS (WORKING+TEST)   (%) : 99.8                           
   3   NUMBER OF REFLECTIONS             : 30828                          
   3                                                                      
   3  FIT TO DATA USED IN REFINEMENT.                                     
   3   CROSS-VALIDATION METHOD          : THROUGHOUT                      
   3   FREE R VALUE TEST SET SELECTION  : RANDOM                          
   3   R VALUE            (WORKING SET) : 0.222                           
   3   FREE R VALUE                     : 0.257                           
   3   FREE R VALUE TEST SET SIZE   (%) : NULL                            
   3   FREE R VALUE TEST SET COUNT      : 1529                            
   3   ESTIMATED ERROR OF FREE R VALUE  : NULL                            
   3                                                                      
   3  FIT IN THE HIGHEST RESOLUTION BIN.                                  
   3   TOTAL NUMBER OF BINS USED           : NULL                         
   3   BIN RESOLUTION RANGE HIGH       (A) : 2.00                         
   3   BIN RESOLUTION RANGE LOW        (A) : 2.13                         
   3   BIN COMPLETENESS (WORKING+TEST) (%) : 100.00                       
   3   REFLECTIONS IN BIN    (WORKING SET) : NULL                         
   3   BIN R VALUE           (WORKING SET) : 0.3980                       
   3   BIN FREE R VALUE                    : 0.4220                       
   3   BIN FREE R VALUE TEST SET SIZE  (%) : NULL                         
   3   BIN FREE R VALUE TEST SET COUNT     : 284                          
   3   ESTIMATED ERROR OF BIN FREE R VALUE : 0.025                        
   3                                                                      
   3  NUMBER OF NON-HYDROGEN ATOMS USED IN REFINEMENT.                    
   3   PROTEIN ATOMS            : 1939                                    
   3   NUCLEIC ACID ATOMS       : 0                                       
   3   HETEROGEN ATOMS          : 27                                      
   3   SOLVENT ATOMS            : 112                                     
   3                                                                      
   3  B VALUES.                                                           
   3   FROM WILSON PLOT           (A**2) : 27.30                          
   3   MEAN B VALUE      (OVERALL, A**2) : 35.60                          
   3   OVERALL ANISOTROPIC B VALUE.                                       
   3    B11 (A**2) : NULL                                                 
   3    B22 (A**2) : NULL                                                 
   3    B33 (A**2) : NULL                                                 
   3    B12 (A**2) : NULL                                                 
   3    B13 (A**2) : NULL                                                 
   3    B23 (A**2) : NULL                                                 
   3                                                                      
   3  ESTIMATED COORDINATE ERROR.                                         
   3   ESD FROM LUZZATI PLOT        (A) : 0.28                            
   3   ESD FROM SIGMAA              (A) : 0.51                            
   3   LOW RESOLUTION CUTOFF        (A) : 5.00                            
   3                                                                      
   3  CROSS-VALIDATED ESTIMATED COORDINATE ERROR.                         
   3   ESD FROM C-V LUZZATI PLOT    (A) : 0.32                            
   3   ESD FROM C-V SIGMAA          (A) : 0.53                            
   3                                                                      
   3  RMS DEVIATIONS FROM IDEAL VALUES.                                   
   3   BOND LENGTHS                 (A) : 0.008                           
   3   BOND ANGLES            (DEGREES) : 1.30                            
   3   DIHEDRAL ANGLES        (DEGREES) : 23.00                           
   3   IMPROPER ANGLES        (DEGREES) : 0.95                            
   3                                                                      
   3  ISOTROPIC THERMAL MODEL : OVERALL                                   
   3                                                                      
   3  ISOTROPIC THERMAL FACTOR RESTRAINTS.    RMS    SIGMA                
   3   MAIN-CHAIN BOND              (A**2) : NULL  ; NULL                 
   3   MAIN-CHAIN ANGLE             (A**2) : NULL  ; NULL                 
   3   SIDE-CHAIN BOND              (A**2) : NULL  ; NULL                 
   3   SIDE-CHAIN ANGLE             (A**2) : NULL  ; NULL                 
   3                                                                      
   3  BULK SOLVENT MODELING.                                              
   3   METHOD USED : NULL                                                 
   3   KSOL        : NULL                                                 
   3   BSOL        : NULL                                                 
   3                                                                      
   3  NCS MODEL : NULL                                                    
   3                                                                      
   3  NCS RESTRAINTS.                         RMS   SIGMA/WEIGHT          
   3   GROUP  1  POSITIONAL            (A) : NULL  ; NULL                 
   3   GROUP  1  B-FACTOR           (A**2) : NULL  ; NULL                 
   3                                                                      
   3  PARAMETER FILE  1  : NULL                                           
   3  TOPOLOGY FILE  1   : NULL                                           
   3                                                                      
   3  OTHER REFINEMENT REMARKS: NULL                                      
   4                                                                      
   4 3FV7 COMPLIES WITH FORMAT V. 3.20, 01-DEC-08                         
 100                                                                      
 100 THIS ENTRY HAS BEEN PROCESSED BY PDBJ ON 23-JAN-09.                  
 100 THE RCSB ID CODE IS RCSB051082.                                      
 200                                                                      
 200 EXPERIMENTAL DETAILS                                                 
 200  EXPERIMENT TYPE                : X-RAY DIFFRACTION                  
 200  DATE OF DATA COLLECTION        : 03-OCT-08                          
 200  TEMPERATURE           (KELVIN) : 100                                
 200  PH                             : 7.5                                
 200  NUMBER OF CRYSTALS USED        : 1                                  
 200                                                                      
 200  SYNCHROTRON              (Y/N) : Y                                  
 200  RADIATION SOURCE               : ESRF                               
 200  BEAMLINE                       : ID14-4                             
 200  X-RAY GENERATOR MODEL          : NULL                               
 200  MONOCHROMATIC OR LAUE    (M/L) : M                                  
 200  WAVELENGTH OR RANGE        (A) : 0.93340                            
 200  MONOCHROMATOR                  : SINGLE SILICON (111)               
 200  OPTICS                         : NULL                               
 200                                                                      
 200  DETECTOR TYPE                  : CCD                                
 200  DETECTOR MANUFACTURER          : ADSC QUANTUM 315                   
 200  INTENSITY-INTEGRATION SOFTWARE : XDS                                
 200  DATA SCALING SOFTWARE          : SCALA                              
 200                                                                      
 200  NUMBER OF UNIQUE REFLECTIONS   : 30828                              
 200  RESOLUTION RANGE HIGH      (A) : 2.000                              
 200  RESOLUTION RANGE LOW       (A) : 45.800                             
 200  REJECTION CRITERIA  (SIGMA(I)) : 0.000                              
 200                                                                      
 200 OVERALL.                                                             
 200  COMPLETENESS FOR RANGE     (%) : 99.8                               
 200  DATA REDUNDANCY                : 9.600                              
 200  R MERGE                    (I) : 0.07600                            
 200  R SYM                      (I) : NULL                               
 200  <I/SIGMA(I)> FOR THE DATA SET  : 21.2000                            
 200                                                                      
 200 IN THE HIGHEST RESOLUTION SHELL.                                     
 200  HIGHEST RESOLUTION SHELL, RANGE HIGH (A) : 2.00                     
 200  HIGHEST RESOLUTION SHELL, RANGE LOW  (A) : 2.11                     
 200  COMPLETENESS FOR SHELL     (%) : 100.0                              
 200  DATA REDUNDANCY IN SHELL       : 9.80                               
 200  R MERGE FOR SHELL          (I) : 0.54000                            
 200  R SYM FOR SHELL            (I) : NULL                               
 200  <I/SIGMA(I)> FOR SHELL         : 4.500                              
 200                                                                      
 200 DIFFRACTION PROTOCOL: SINGLE WAVELENGTH                              
 200 METHOD USED TO DETERMINE THE STRUCTURE: MOLECULAR REPLACEMENT        
 200 SOFTWARE USED: CNS                                                   
 200 STARTING MODEL: PDB ENTRY 2JC7                                       
 200                                                                      
 200 REMARK: NULL                                                         
 280                                                                      
 280 CRYSTAL                                                              
 280 SOLVENT CONTENT, VS   (%): 69.26                                     
 280 MATTHEWS COEFFICIENT, VM (ANGSTROMS**3/DA): 4.00                     
 280                                                                      
 280 CRYSTALLIZATION CONDITIONS: 0.1M SODIUM ACETATE, 28% PEG 2000 MME,   
 280  0.1M HEPES (PH 7.5), VAPOR DIFFUSION, SITTING DROP, TEMPERATURE     
 280  293K                                                                
 290                                                                      
 290 CRYSTALLOGRAPHIC SYMMETRY                                            
 290 SYMMETRY OPERATORS FOR SPACE GROUP: P 41 21 2                        
 290                                                                      
 290      SYMOP   SYMMETRY                                                
 290     NNNMMM   OPERATOR                                                
 290       1555   X,Y,Z                                                   
 290       2555   -X,-Y,Z+1/2                                             
 290       3555   -Y+1/2,X+1/2,Z+1/4                                      
 290       4555   Y+1/2,-X+1/2,Z+3/4                                      
 290       5555   -X+1/2,Y+1/2,-Z+1/4                                     
 290       6555   X+1/2,-Y+1/2,-Z+3/4                                     
 290       7555   Y,X,-Z                                                  
 290       8555   -Y,-X,-Z+1/2                                            
 290                                                                      
 290     WHERE NNN -> OPERATOR NUMBER                                     
 290           MMM -> TRANSLATION VECTOR                                  
 290                                                                      
 290 CRYSTALLOGRAPHIC SYMMETRY TRANSFORMATIONS                            
 290 THE FOLLOWING TRANSFORMATIONS OPERATE ON THE ATOM/HETATM             
 290 RECORDS IN THIS ENTRY TO PRODUCE CRYSTALLOGRAPHICALLY                
 290 RELATED MOLECULES.                                                   
 290   SMTRY1   1  1.000000  0.000000  0.000000        0.00000            
 290   SMTRY2   1  0.000000  1.000000  0.000000        0.00000            
 290   SMTRY3   1  0.000000  0.000000  1.000000        0.00000            
 290   SMTRY1   2 -1.000000  0.000000  0.000000        0.00000            
 290   SMTRY2   2  0.000000 -1.000000  0.000000        0.00000            
 290   SMTRY3   2  0.000000  0.000000  1.000000       42.11000            
 290   SMTRY1   3  0.000000 -1.000000  0.000000       51.19500            
 290   SMTRY2   3  1.000000  0.000000  0.000000       51.19500            
 290   SMTRY3   3  0.000000  0.000000  1.000000       21.05500            
 290   SMTRY1   4  0.000000  1.000000  0.000000       51.19500            
 290   SMTRY2   4 -1.000000  0.000000  0.000000       51.19500            
 290   SMTRY3   4  0.000000  0.000000  1.000000       63.16500            
 290   SMTRY1   5 -1.000000  0.000000  0.000000       51.19500            
 290   SMTRY2   5  0.000000  1.000000  0.000000       51.19500            
 290   SMTRY3   5  0.000000  0.000000 -1.000000       21.05500            
 290   SMTRY1   6  1.000000  0.000000  0.000000       51.19500            
 290   SMTRY2   6  0.000000 -1.000000  0.000000       51.19500            
 290   SMTRY3   6  0.000000  0.000000 -1.000000       63.16500            
 290   SMTRY1   7  0.000000  1.000000  0.000000        0.00000            
 290   SMTRY2   7  1.000000  0.000000  0.000000        0.00000            
 290   SMTRY3   7  0.000000  0.000000 -1.000000        0.00000            
 290   SMTRY1   8  0.000000 -1.000000  0.000000        0.00000            
 290   SMTRY2   8 -1.000000  0.000000  0.000000        0.00000            
 290   SMTRY3   8  0.000000  0.000000 -1.000000       42.11000            
 290                                                                      
 290 REMARK: NULL                                                         
 300                                                                      
 300 BIOMOLECULE: 1                                                       
 300 SEE REMARK 350 FOR THE AUTHOR PROVIDED AND/OR PROGRAM                
 300 GENERATED ASSEMBLY INFORMATION FOR THE STRUCTURE IN                  
 300 THIS ENTRY. THE REMARK MAY ALSO PROVIDE INFORMATION ON               
 300 BURIED SURFACE AREA.                                                 
 350                                                                      
 350 COORDINATES FOR A COMPLETE MULTIMER REPRESENTING THE KNOWN           
 350 BIOLOGICALLY SIGNIFICANT OLIGOMERIZATION STATE OF THE                
 350 MOLECULE CAN BE GENERATED BY APPLYING BIOMT TRANSFORMATIONS          
 350 GIVEN BELOW.  BOTH NON-CRYSTALLOGRAPHIC AND                          
 350 CRYSTALLOGRAPHIC OPERATIONS ARE GIVEN.                               
 350                                                                      
 350 BIOMOLECULE: 1                                                       
 350 AUTHOR DETERMINED BIOLOGICAL UNIT: MONOMERIC                         
 350 SOFTWARE DETERMINED QUATERNARY STRUCTURE: MONOMERIC                  
 350 SOFTWARE USED: PISA                                                  
 350 APPLY THE FOLLOWING TO CHAINS: A                                     
 350   BIOMT1   1  1.000000  0.000000  0.000000        0.00000            
 350   BIOMT2   1  0.000000  1.000000  0.000000        0.00000            
 350   BIOMT3   1  0.000000  0.000000  1.000000        0.00000            
 375                                                                      
 375 SPECIAL POSITION                                                     
 375 THE FOLLOWING ATOMS ARE FOUND TO BE WITHIN 0.15 ANGSTROMS            
 375 OF A SYMMETRY RELATED ATOM AND ARE ASSUMED TO BE ON SPECIAL          
 375 POSITIONS.                                                           
 375                                                                      
 375 ATOM RES CSSEQI                                                      
 375      HOH A 334  LIES ON A SPECIAL POSITION.                          
 375      HOH A 337  LIES ON A SPECIAL POSITION.                          
 500                                                                      
 500 GEOMETRY AND STEREOCHEMISTRY                                         
 500 SUBTOPIC: CLOSE CONTACTS IN SAME ASYMMETRIC UNIT                     
 500                                                                      
 500 THE FOLLOWING ATOMS ARE IN CLOSE CONTACT.                            
 500                                                                      
 500  ATM1  RES C  SSEQI   ATM2  RES C  SSEQI           DISTANCE          
 500   OG   SER A    81     C9   MXS A   300              1.43            
 500                                                                      
 500 REMARK: NULL                                                         
 500                                                                      
 500 GEOMETRY AND STEREOCHEMISTRY                                         
 500 SUBTOPIC: TORSION ANGLES                                             
 500                                                                      
 500 TORSION ANGLES OUTSIDE THE EXPECTED RAMACHANDRAN REGIONS:            
 500 (M=MODEL NUMBER; RES=RESIDUE NAME; C=CHAIN IDENTIFIER;               
 500 SSEQ=SEQUENCE NUMBER; I=INSERTION CODE).                             
 500                                                                      
 500 STANDARD TABLE:                                                      
 500 FORMAT:(10X,I3,1X,A3,1X,A1,I4,A1,4X,F7.2,3X,F7.2)                    
 500                                                                      
 500 EXPECTED VALUES: GJ KLEYWEGT AND TA JONES (1996). PHI/PSI-           
 500 CHOLOGY: RAMACHANDRAN REVISITED. STRUCTURE 4, 1395 - 1400            
 500                                                                      
 500  M RES CSSEQI        PSI       PHI                                   
 500    ALA A  69       65.25   -154.26                                   
 500    ALA A  80     -144.47     50.58                                   
 500    ALA A 129       85.68    -67.33                                   
 500    THR A 157       14.40     51.39                                   
 500    ASN A 165       10.85   -155.29                                   
 500    ASN A 240        2.01    -61.08                                   
 500                                                                      
 500 REMARK: NULL                                                         
 800                                                                      
 800 SITE                                                                 
 800 SITE_IDENTIFIER: AC1                                                 
 800 EVIDENCE_CODE: SOFTWARE                                              
 800 SITE_DESCRIPTION: BINDING SITE FOR RESIDUE MXS A 300                 

>  <DBREF>
 3FV7 A   32   275  UNP    Q8RLA6   Q8RLA6_ACIBA    32    275             

>  <SEQRES>
   1 A  244  HIS ILE SER SER GLN GLN HIS GLU LYS ALA ILE LYS SER          
   2 A  244  TYR PHE ASP GLU ALA GLN THR GLN GLY VAL ILE ILE ILE          
   3 A  244  LYS GLU GLY LYS ASN LEU SER THR TYR GLY ASN ALA LEU          
   4 A  244  ALA ARG ALA ASN LYS GLU TYR VAL PRO ALA SER THR PHE          
   5 A  244  KCX MET LEU ASN ALA LEU ILE GLY LEU GLU ASN HIS LYS          
   6 A  244  ALA THR THR ASN GLU ILE PHE LYS TRP ASP GLY LYS LYS          
   7 A  244  ARG THR TYR PRO MET TRP GLU LYS ASP MET THR LEU GLY          
   8 A  244  GLU ALA MET ALA LEU SER ALA VAL PRO VAL TYR GLN GLU          
   9 A  244  LEU ALA ARG ARG THR GLY LEU GLU LEU MET GLN LYS GLU          
  10 A  244  VAL LYS ARG VAL ASN PHE GLY ASN THR ASN ILE GLY THR          
  11 A  244  GLN VAL ASP ASN PHE TRP LEU VAL GLY PRO LEU LYS ILE          
  12 A  244  THR PRO VAL GLN GLU VAL ASN PHE ALA ASP ASP LEU ALA          
  13 A  244  HIS ASN ARG LEU PRO PHE LYS LEU GLU THR GLN GLU GLU          
  14 A  244  VAL LYS LYS MET LEU LEU ILE LYS GLU VAL ASN GLY SER          
  15 A  244  LYS ILE TYR ALA LYS SER GLY TRP GLY MET GLY VAL THR          
  16 A  244  PRO GLN VAL GLY TRP LEU THR GLY TRP VAL GLU GLN ALA          
  17 A  244  ASN GLY LYS LYS ILE PRO PHE SER LEU ASN LEU GLU MET          
  18 A  244  LYS GLU GLY MET SER GLY SER ILE ARG ASN GLU ILE THR          
  19 A  244  TYR LYS SER LEU GLU ASN LEU GLY ILE ILE                      

>  <MODRES>
 3FV7 KCX A   84  LYS  LYSINE NZ-CARBOXYLIC ACID                          

>  <HET>
 KCX  A  84      12                                                       
 MXS  A 300      27                                                       

>  <HETNAM>
     KCX LYSINE NZ-CARBOXYLIC ACID                                        
     MXS (2S)-2-[[2-METHANOYL-7-(METHOXYCARBONYLAMINO)INDOLIZIN-          
   2 MXS  3-YL]AMINO]-3-METHYL-3-SULFINO-BUTANOIC ACID                    

>  <FORMUL>
   1  KCX    C7 H14 N2 O4                                                 
   2  MXS    C16 H19 N3 O7 S                                              
   3  HOH   *112(H2 O)                                                    

>  <HELIX>
   1   1 SER A   34  ALA A   49  1                                  16    
   2   2 ALA A   69  LYS A   75  5                                   7    
   3   3 PRO A   79  THR A   82  5                                   4    
   4   4 PHE A   83  ASN A   94  1                                  12    
   5   5 TYR A  112  GLU A  116  5                                   5    
   6   6 THR A  120  SER A  128  1                                   9    
   7   7 ALA A  129  GLY A  141  1                                  13    
   8   8 GLY A  141  ASN A  153  1                                  13    
   9   9 ASN A  165  GLY A  170  1                                   6    
  10  10 THR A  175  HIS A  188  1                                  14    
  11  11 LYS A  194  LEU A  205  1                                  12    
  12  12 GLY A  258  LEU A  272  1                                  15    

>  <SHEET>
   1   A 6 ASN A  62  GLY A  67  0                                        
   2   A 6 GLY A  53  GLU A  59 -1  N  ILE A  57   O  SER A  64           
   3   A 6 LYS A 243  MET A 252 -1  O  ASN A 249   N  VAL A  54           
   4   A 6 GLN A 228  GLU A 237 -1  N  GLY A 230   O  LEU A 250           
   5   A 6 SER A 213  GLY A 222 -1  N  LYS A 214   O  GLU A 237           
   6   A 6 LEU A 206  VAL A 210 -1  N  LYS A 208   O  ILE A 215           

>  <LINK>
       C   PHE A  83                 N   KCX A  84     1555   1555  1.33  
       C   KCX A  84                 N   MET A  85     1555   1555  1.33  

>  <CISPEP>
   1 GLY A  170    PRO A  171          0         0.29                     
   2 THR A  226    PRO A  227          0        -0.06                     

>  <SITE>
   1 AC1  9 ALA A  80  SER A  81  TYR A 112  SER A 128                    
   2 AC1  9 VAL A 130  SER A 219  GLY A 220  TRP A 221                    
   3 AC1  9 ARG A 261                                                     

>  <ORIGX1>
      1.000000  0.000000  0.000000        0.00000                         

>  <ORIGX2>
      0.000000  1.000000  0.000000        0.00000                         

>  <ORIGX3>
      0.000000  0.000000  1.000000        0.00000                         

>  <SCALE1>
      0.009767  0.000000  0.000000        0.00000                         

>  <SCALE2>
      0.000000  0.009767  0.000000        0.00000                         

>  <SCALE3>
      0.000000  0.000000  0.011874        0.00000                         

>  <MASTER>
      283    0    2   12    6    0    3    6 2078    1   41   19          

$$$$
