start_structures/Ligand_Substrate/Ligand_Complex_Stripped/N9X_8AKM.pdb
 OpenBabel08222315203D

102104  0  0  1  0  0  0  0  0999 V2000
   11.9940   12.2770   19.1350 N   0  0  0  0  0  0  0  0  0  0  0  0
   12.7940   13.2420   19.8830 C   0  0  2  0  0  0  0  0  0  0  0  0
   13.0230   14.5540   19.1370 C   0  0  0  0  0  0  0  0  0  0  0  0
   13.6150   15.4780   19.7040 O   0  0  0  0  0  0  0  0  0  0  0  0
   14.1730   12.6830   20.2260 C   0  0  0  0  0  0  0  0  0  0  0  0
   14.1250   11.6210   21.1510 O   0  0  0  0  0  0  0  0  0  0  0  0
   12.4230   11.5860   18.8560 H   0  0  0  0  0  0  0  0  0  0  0  0
   12.3060   13.4130   20.7040 H   0  0  0  0  0  0  0  0  0  0  0  0
   14.5850   12.3590   19.4090 H   0  0  0  0  0  0  0  0  0  0  0  0
   14.7080   13.3970   20.6070 H   0  0  0  0  0  0  0  0  0  0  0  0
   19.2930    4.3790   18.5550 N   0  0  0  0  0  0  0  0  0  0  0  0
   19.4640    4.4150   18.2930 N   0  0  0  0  0  0  0  0  0  0  0  0
   17.9960    8.6570   20.8530 C   0  0  2  0  0  0  0  0  0  0  0  0
   18.0340    8.5470   20.8830 C   0  0  2  0  0  0  0  0  0  0  0  0
   19.4620   10.4740   18.9580 O   0  0  0  0  0  0  0  0  0  0  0  0
   19.6010   10.3900   19.1010 O   0  0  0  0  0  0  0  0  0  0  0  0
   19.7430    6.0720   20.2480 C   0  0  0  0  0  0  0  0  0  0  0  0
   17.4010    4.6960   19.5230 C   0  0  0  0  0  0  0  0  0  0  0  0
   19.9810    4.6110   19.8330 C   0  0  2  0  0  0  0  0  0  0  0  0
   18.5580    3.7250   19.2260 C   0  0  2  0  0  0  0  0  0  0  0  0
   21.4800    4.3430   19.7100 C   0  0  0  0  0  0  0  0  0  0  0  0
   19.2640    3.3710   20.5340 C   0  0  0  0  0  0  0  0  0  0  0  0
   22.0930    4.8770   18.6560 N   0  0  0  0  0  0  0  0  0  0  0  0
   20.5700    3.1320   20.4620 N   0  0  0  0  0  0  0  0  0  0  0  0
   16.7860    7.2450   22.6040 C   0  0  0  0  0  0  0  0  0  0  0  0
   16.7640    7.1700   22.5980 C   0  0  0  0  0  0  0  0  0  0  0  0
   22.0600    3.6780   20.5730 O   0  0  0  0  0  0  0  0  0  0  0  0
   18.6200    3.3390   21.5890 O   0  0  0  0  0  0  0  0  0  0  0  0
   17.2900    8.6280   22.2200 C   0  0  2  0  0  0  0  0  0  0  0  0
   17.2950    8.5470   22.2300 C   0  0  2  0  0  0  0  0  0  0  0  0
   16.2040    9.7050   22.0850 C   0  0  2  0  0  0  0  0  0  0  0  0
   16.2240    9.6370   22.0790 C   0  0  2  0  0  0  0  0  0  0  0  0
   14.7890    9.2730   21.6530 C   0  0  2  0  0  0  0  0  0  0  0  0
   14.8130    9.2900   21.5700 C   0  0  2  0  0  0  0  0  0  0  0  0
   14.2990   10.3300   20.7140 C   0  0  0  0  0  0  0  0  0  0  0  0
   14.3860   10.3760   20.6320 C   0  0  0  0  0  0  0  0  0  0  0  0
   13.7180    9.1830   22.7390 C   0  0  1  0  0  0  0  0  0  0  0  0
   13.7480    9.2190   22.6640 C   0  0  1  0  0  0  0  0  0  0  0  0
   12.4240    8.5910   22.2210 C   0  0  0  0  0  0  0  0  0  0  0  0
   12.4480    8.6290   22.1600 C   0  0  0  0  0  0  0  0  0  0  0  0
   19.0000    6.7690   19.0190 C   0  0  1  0  0  0  0  0  0  0  0  0
   18.2840    6.0040   19.5560 C   0  0  1  0  0  0  0  0  0  0  0  0
   18.7940    5.6260   18.0140 C   0  0  0  0  0  0  0  0  0  0  0  0
   19.0690    5.8380   18.2380 C   0  0  0  0  0  0  0  0  0  0  0  0
   17.6460   10.0510   20.4040 C   0  0  1  0  0  0  0  0  0  0  0  0
   17.7750    9.9790   20.5200 C   0  0  1  0  0  0  0  0  0  0  0  0
   18.2980   10.7060   19.2380 C   0  0  0  0  0  0  0  0  0  0  0  0
   18.4530   10.6590   19.3990 C   0  0  0  0  0  0  0  0  0  0  0  0
   16.7070   10.6340   21.0550 N   0  0  0  0  0  0  0  0  0  0  0  0
   16.8220   10.5950   21.1340 N   0  0  0  0  0  0  0  0  0  0  0  0
   17.5500   11.5310   18.5550 O   0  0  0  0  0  0  0  0  0  0  0  0
   17.7270   11.5160   18.7800 O   0  0  0  0  0  0  0  0  0  0  0  0
   13.9430   10.1460   19.5740 O   0  0  0  0  0  0  0  0  0  0  0  0
   13.9250   10.1840   19.5390 O   0  0  0  0  0  0  0  0  0  0  0  0
   14.2440    8.4020   23.8110 O   0  0  0  0  0  0  0  0  0  0  0  0
   14.2550    8.4500   23.7560 O   0  0  0  0  0  0  0  0  0  0  0  0
   17.4160    7.4180   19.6380 S   0  0  0  0  0  0  0  0  0  0  0  0
   17.3020    7.4970   19.5740 S   0  0  0  0  0  0  0  0  0  0  0  0
   19.8170    3.8010   17.9070 H   0  0  0  0  0  0  0  0  0  0  0  0
   20.4510    4.2230   18.4320 H   0  0  0  0  0  0  0  0  0  0  0  0
   19.0570    8.4620   20.9990 H   0  0  0  0  0  0  0  0  0  0  0  0
   19.0610    8.2150   21.0270 H   0  0  0  0  0  0  0  0  0  0  0  0
   19.1410    6.1300   21.1530 H   0  0  0  0  0  0  0  0  0  0  0  0
   16.6320    4.7080   18.7520 H   0  0  0  0  0  0  0  0  0  0  0  0
   20.6830    6.5740   20.4730 H   0  0  0  0  0  0  0  0  0  0  0  0
   16.8890    4.4910   20.4620 H   0  0  0  0  0  0  0  0  0  0  0  0
   19.5830    3.9570   20.6080 H   0  0  0  0  0  0  0  0  0  0  0  0
   18.1760    2.8030   18.7900 H   0  0  0  0  0  0  0  0  0  0  0  0
   21.6160    5.4360   17.9560 H   0  0  0  0  0  0  0  0  0  0  0  0
   21.0990    3.1750   19.5960 H   0  0  0  0  0  0  0  0  0  0  0  0
   17.6130    6.5430   22.7010 H   0  0  0  0  0  0  0  0  0  0  0  0
   17.5790    6.4550   22.7040 H   0  0  0  0  0  0  0  0  0  0  0  0
   16.1020    6.8570   21.8510 H   0  0  0  0  0  0  0  0  0  0  0  0
   16.0860    6.7970   21.8320 H   0  0  0  0  0  0  0  0  0  0  0  0
   16.2570    7.2740   23.5560 H   0  0  0  0  0  0  0  0  0  0  0  0
   16.2210    7.2030   23.5410 H   0  0  0  0  0  0  0  0  0  0  0  0
   17.9860    8.9340   23.0000 H   0  0  0  0  0  0  0  0  0  0  0  0
   17.9760    8.8580   23.0200 H   0  0  0  0  0  0  0  0  0  0  0  0
   16.1320   10.2360   23.0330 H   0  0  0  0  0  0  0  0  0  0  0  0
   16.0900   10.1070   23.0520 H   0  0  0  0  0  0  0  0  0  0  0  0
   14.8930    8.2880   21.2020 H   0  0  0  0  0  0  0  0  0  0  0  0
   14.8700    8.3310   21.0570 H   0  0  0  0  0  0  0  0  0  0  0  0
   13.5060   10.1790   23.1260 H   0  0  0  0  0  0  0  0  0  0  0  0
   13.5590   10.2250   23.0350 H   0  0  0  0  0  0  0  0  0  0  0  0
   12.3290    7.5290   22.4430 H   0  0  0  0  0  0  0  0  0  0  0  0
   12.4080    7.5460   22.2680 H   0  0  0  0  0  0  0  0  0  0  0  0
   12.3210    8.6830   21.1410 H   0  0  0  0  0  0  0  0  0  0  0  0
   12.2740    8.8340   21.1050 H   0  0  0  0  0  0  0  0  0  0  0  0
   11.5430    9.0670   22.6490 H   0  0  0  0  0  0  0  0  0  0  0  0
   11.5780    9.0160   22.6890 H   0  0  0  0  0  0  0  0  0  0  0  0
   19.5600    7.5500   18.5060 H   0  0  0  0  0  0  0  0  0  0  0  0
   18.9600    6.0820   20.4070 H   0  0  0  0  0  0  0  0  0  0  0  0
   17.7460    5.4830   17.7530 H   0  0  0  0  0  0  0  0  0  0  0  0
   18.4860    6.0390   17.3400 H   0  0  0  0  0  0  0  0  0  0  0  0
   19.2990    5.8060   17.0660 H   0  0  0  0  0  0  0  0  0  0  0  0
   19.9470    6.4770   18.1540 H   0  0  0  0  0  0  0  0  0  0  0  0
   18.0420   11.9350   17.7930 H   0  0  0  0  0  0  0  0  0  0  0  0
   18.2170   11.9470   18.0320 H   0  0  0  0  0  0  0  0  0  0  0  0
   13.6370    7.6260   23.9320 H   0  0  0  0  0  0  0  0  0  0  0  0
   13.6480    8.6010   24.5270 H   0  0  0  0  0  0  0  0  0  0  0  0
   23.0850    4.7660   18.4710 H   0  0  0  0  0  0  0  0  0  0  0  0
   21.1390    2.8880   21.2660 H   0  0  0  0  0  0  0  0  0  0  0  0
  1  2  1  0  0  0  0
  2  5  1  0  0  0  0
  2  8  1  1  0  0  0
  3  4  2  0  0  0  0
  3  2  1  0  0  0  0
  5 10  1  0  0  0  0
  6 35  1  0  0  0  0
  6 36  1  0  0  0  0
  7  1  1  0  0  0  0
  9  5  1  0  0  0  0
 11 19  1  0  0  0  0
 11 43  1  0  0  0  0
 11 59  1  0  0  0  0
 12 20  1  0  0  0  0
 12 44  1  0  0  0  0
 12 60  1  0  0  0  0
 13 29  1  0  0  0  0
 13 45  1  0  0  0  0
 13 57  1  0  0  0  0
 13 61  1  1  0  0  0
 14 30  1  0  0  0  0
 14 46  1  0  0  0  0
 14 58  1  0  0  0  0
 14 62  1  1  0  0  0
 15 47  2  0  0  0  0
 16 48  2  0  0  0  0
 17 19  1  0  0  0  0
 17 41  1  0  0  0  0
 17 63  1  0  0  0  0
 17 65  1  0  0  0  0
 18 20  1  0  0  0  0
 18 42  1  0  0  0  0
 18 64  1  0  0  0  0
 18 66  1  0  0  0  0
 19 21  1  0  0  0  0
 19 67  1  1  0  0  0
 20 22  1  0  0  0  0
 20 68  1  6  0  0  0
 21 23  1  0  0  0  0
 21 27  2  0  0  0  0
 22 24  1  0  0  0  0
 22 28  2  0  0  0  0
 23 69  1  0  0  0  0
 24 70  1  0  0  0  0
 24102  1  0  0  0  0
 25 29  1  0  0  0  0
 25 71  1  0  0  0  0
 25 73  1  0  0  0  0
 25 75  1  0  0  0  0
 26 30  1  0  0  0  0
 26 72  1  0  0  0  0
 26 74  1  0  0  0  0
 26 76  1  0  0  0  0
 29 31  1  0  0  0  0
 29 77  1  1  0  0  0
 30 32  1  0  0  0  0
 30 78  1  1  0  0  0
 31 33  1  0  0  0  0
 31 49  1  0  0  0  0
 31 79  1  1  0  0  0
 32 34  1  0  0  0  0
 32 50  1  0  0  0  0
 32 80  1  1  0  0  0
 33 35  1  0  0  0  0
 33 37  1  0  0  0  0
 33 81  1  6  0  0  0
 34 36  1  0  0  0  0
 34 38  1  0  0  0  0
 34 82  1  6  0  0  0
 35 53  2  0  0  0  0
 36 54  2  0  0  0  0
 37 39  1  0  0  0  0
 37 55  1  0  0  0  0
 37 83  1  1  0  0  0
 38 40  1  0  0  0  0
 38 56  1  0  0  0  0
 38 84  1  1  0  0  0
 39 85  1  0  0  0  0
 39 87  1  0  0  0  0
 39 89  1  0  0  0  0
 40 86  1  0  0  0  0
 40 88  1  0  0  0  0
 40 90  1  0  0  0  0
 41 43  1  0  0  0  0
 41 57  1  0  0  0  0
 41 91  1  6  0  0  0
 42 44  1  0  0  0  0
 42 58  1  0  0  0  0
 42 92  1  1  0  0  0
 43 93  1  0  0  0  0
 43 95  1  0  0  0  0
 44 94  1  0  0  0  0
 44 96  1  0  0  0  0
 45 47  1  6  0  0  0
 45 49  1  0  0  0  0
 46 48  1  6  0  0  0
 46 50  1  0  0  0  0
 47 51  1  0  0  0  0
 48 52  1  0  0  0  0
 51 97  1  0  0  0  0
 52 98  1  0  0  0  0
 55 99  1  0  0  0  0
 56100  1  0  0  0  0
101 23  1  0  0  0  0
M  END
>  <HEADER>
    ANTIMICROBIAL PROTEIN                   29-JUL-22   8AKM              

>  <TITLE>
    ACYL-ENZYME COMPLEX OF ERTAPENEM BOUND TO DEACYLATION MUTANT KPC-2    
   2 (E166Q)                                                              

>  <COMPND>
    MOL_ID: 1;                                                            
   2 MOLECULE: CARBAPENEM-HYDROLYZING BETA-LACTAMASE KPC;                 
   3 CHAIN: A;                                                            
   4 SYNONYM: CARBAPENEM-HYDROLYZING BETA-LACTAMASE KPC-1;                
   5 EC: 3.5.2.6;                                                         
   6 ENGINEERED: YES;                                                     
   7 MUTATION: YES                                                        

>  <SOURCE>
    MOL_ID: 1;                                                            
   2 ORGANISM_SCIENTIFIC: KLEBSIELLA PNEUMONIAE;                          
   3 ORGANISM_TAXID: 573;                                                 
   4 GENE: BLA, KPC, KPC1;                                                
   5 EXPRESSION_SYSTEM: ESCHERICHIA COLI BL21(DE3);                       
   6 EXPRESSION_SYSTEM_TAXID: 469008;                                     
   7 EXPRESSION_SYSTEM_STRAIN: SOLUBL21                                   

>  <KEYWDS>
    ACYL-ENZYME COMPLEX, ANTIBIOTIC RESISTANCE, BETA-LACTAMASE,           
   2 ANTIBIOTIC, LIGAND, ANTIMICROBIAL PROTEIN                            

>  <EXPDTA>
    X-RAY DIFFRACTION                                                     

>  <AUTHOR>
    C.L.TOOKE,P.HINCHLIFFE,J.SPENCER                                      

>  <REVDAT>
   1   08-MAR-23 8AKM    0                                                

>  <JRNL>
      AUTH   C.L.TOOKE,P.HINCHLIFFE,J.SPENCER                             
      TITL   CARBAPENEM HYDROLYSIS BY KPC-2 IS DETERMINED BY ACYL-ENZYME  
      TITL 2 TAUTOMERISATION AND OMEGA-LOOP STABILITY                     
      REF    TO BE PUBLISHED                                              
      REFN                                                                

>  <REMARK>
   1                                                                      
   1 REFERENCE 1                                                          
   1  AUTH   P.V.AFONINE,R.W.GROSSE-KUNSTLEVE,N.ECHOLS,J.J.HEADD,         
   1  AUTH 2 N.W.MORIARTY,M.MUSTYAKIMOV,T.C.TERWILLIGER,A.URZHUMTSEV,     
   1  AUTH 3 P.H.ZWART,P.D.ADAMS                                          
   1  TITL   TOWARDS AUTOMATED CRYSTALLOGRAPHIC STRUCTURE REFINEMENT WITH 
   1  TITL 2 PHENIX.REFINE.                                               
   1  REF    ACTA CRYSTALLOGR.,SECT.D      V.  68   352 2012              
   1  REFN                   ESSN 1399-0047                               
   1  PMID   22505256                                                     
   1  DOI    10.1107/S0907444912001308                                    
   1 REFERENCE 2                                                          
   1  AUTH   D.LIEBSCHNER,P.V.AFONINE,M.L.BAKER,G.BUNKOCZI,V.B.CHEN,      
   1  AUTH 2 T.I.CROLL,B.HINTZE,L.W.HUNG,S.JAIN,A.J.MCCOY,N.W.MORIARTY,   
   1  AUTH 3 R.D.OEFFNER,B.K.POON,M.G.PRISANT,R.J.READ,J.S.RICHARDSON,    
   1  AUTH 4 D.C.RICHARDSON,M.D.SAMMITO,O.V.SOBOLEV,D.H.STOCKWELL,        
   1  AUTH 5 T.C.TERWILLIGER,A.G.URZHUMTSEV,L.L.VIDEAU,C.J.WILLIAMS,      
   1  AUTH 6 P.D.ADAMS                                                    
   1  TITL   MACROMOLECULAR STRUCTURE DETERMINATION USING X-RAYS,         
   1  TITL 2 NEUTRONS AND ELECTRONS: RECENT DEVELOPMENTS IN PHENIX.       
   1  REF    ACTA CRYSTALLOGR D STRUCT     V.  75   861 2019              
   1  REF  2 BIOL                                                         
   1  REFN                   ISSN 2059-7983                               
   1  PMID   31588918                                                     
   1  DOI    10.1107/S2059798319011471                                    
   2                                                                      
   2 RESOLUTION.    1.25 ANGSTROMS.                                       
   3                                                                      
   3 REFINEMENT.                                                          
   3   PROGRAM     : PHENIX 1.18.2_3874                                   
   3   AUTHORS     : PAUL ADAMS,PAVEL AFONINE,VINCENT CHEN,IAN            
   3               : DAVIS,KRESHNA GOPAL,RALF GROSSE-KUNSTLEVE,           
   3               : LI-WEI HUNG,ROBERT IMMORMINO,TOM IOERGER,            
   3               : AIRLIE MCCOY,ERIK MCKEE,NIGEL MORIARTY,              
   3               : REETAL PAI,RANDY READ,JANE RICHARDSON,               
   3               : DAVID RICHARDSON,TOD ROMO,JIM SACCHETTINI,           
   3               : NICHOLAS SAUTER,JACOB SMITH,LAURENT                  
   3               : STORONI,TOM TERWILLIGER,PETER ZWART                  
   3                                                                      
   3    REFINEMENT TARGET : ML                                            
   3                                                                      
   3  DATA USED IN REFINEMENT.                                            
   3   RESOLUTION RANGE HIGH (ANGSTROMS) : 1.25                           
   3   RESOLUTION RANGE LOW  (ANGSTROMS) : 47.80                          
   3   MIN(FOBS/SIGMA_FOBS)              : 1.340                          
   3   COMPLETENESS FOR RANGE        (%) : 99.9                           
   3   NUMBER OF REFLECTIONS             : 73569                          
   3                                                                      
   3  FIT TO DATA USED IN REFINEMENT.                                     
   3   R VALUE     (WORKING + TEST SET) : 0.151                           
   3   R VALUE            (WORKING SET) : 0.150                           
   3   FREE R VALUE                     : 0.164                           
   3   FREE R VALUE TEST SET SIZE   (%) : 5.000                           
   3   FREE R VALUE TEST SET COUNT      : 3678                            
   3                                                                      
   3  FIT TO DATA USED IN REFINEMENT (IN BINS).                           
   3   BIN  RESOLUTION RANGE  COMPL.    NWORK NFREE   RWORK  RFREE        
   3     1 47.8000 -  3.7000    1.00     2898   157  0.1602 0.1629        
   3     2  3.7000 -  2.9400    1.00     2788   137  0.1470 0.1624        
   3     3  2.9400 -  2.5700    1.00     2734   152  0.1390 0.1390        
   3     4  2.5700 -  2.3300    1.00     2714   150  0.1263 0.1432        
   3     5  2.3300 -  2.1700    1.00     2693   177  0.1189 0.1230        
   3     6  2.1700 -  2.0400    1.00     2695   146  0.1223 0.1198        
   3     7  2.0400 -  1.9400    1.00     2686   151  0.1212 0.1334        
   3     8  1.9400 -  1.8500    1.00     2679   156  0.1197 0.1445        
   3     9  1.8500 -  1.7800    1.00     2676   146  0.1281 0.1726        
   3    10  1.7800 -  1.7200    1.00     2687   134  0.1303 0.1674        
   3    11  1.7200 -  1.6700    1.00     2695   134  0.1350 0.1722        
   3    12  1.6700 -  1.6200    1.00     2639   160  0.1335 0.1727        
   3    13  1.6200 -  1.5700    1.00     2676   124  0.1430 0.1507        
   3    14  1.5700 -  1.5400    1.00     2712   126  0.1433 0.1594        
   3    15  1.5400 -  1.5000    1.00     2661   123  0.1489 0.2072        
   3    16  1.5000 -  1.4700    1.00     2673   140  0.1556 0.1860        
   3    17  1.4700 -  1.4400    1.00     2655   144  0.1687 0.1991        
   3    18  1.4400 -  1.4100    1.00     2669   145  0.1823 0.2041        
   3    19  1.4100 -  1.3900    1.00     2651   135  0.1937 0.2377        
   3    20  1.3900 -  1.3600    1.00     2664   138  0.2161 0.2712        
   3    21  1.3600 -  1.3400    1.00     2662   130  0.2295 0.2183        
   3    22  1.3400 -  1.3200    1.00     2646   141  0.2455 0.2949        
   3    23  1.3200 -  1.3000    1.00     2654   118  0.2540 0.2770        
   3    24  1.3000 -  1.2800    1.00     2657   144  0.2768 0.3010        
   3    25  1.2800 -  1.2700    1.00     2659   128  0.2912 0.3245        
   3    26  1.2700 -  1.2500    1.00     2668   142  0.3051 0.3470        
   3                                                                      
   3  BULK SOLVENT MODELLING.                                             
   3   METHOD USED        : FLAT BULK SOLVENT MODEL                       
   3   SOLVENT RADIUS     : 1.11                                          
   3   SHRINKAGE RADIUS   : 0.90                                          
   3   K_SOL              : NULL                                          
   3   B_SOL              : NULL                                          
   3                                                                      
   3  ERROR ESTIMATES.                                                    
   3   COORDINATE ERROR (MAXIMUM-LIKELIHOOD BASED)     : 0.140            
   3   PHASE ERROR (DEGREES, MAXIMUM-LIKELIHOOD BASED) : 18.370           
   3                                                                      
   3  B VALUES.                                                           
   3   FROM WILSON PLOT           (A**2) : NULL                           
   3   MEAN B VALUE      (OVERALL, A**2) : 21.52                          
   3   OVERALL ANISOTROPIC B VALUE.                                       
   3    B11 (A**2) : NULL                                                 
   3    B22 (A**2) : NULL                                                 
   3    B33 (A**2) : NULL                                                 
   3    B12 (A**2) : NULL                                                 
   3    B13 (A**2) : NULL                                                 
   3    B23 (A**2) : NULL                                                 
   3                                                                      
   3  TWINNING INFORMATION.                                               
   3   FRACTION: NULL                                                     
   3   OPERATOR: NULL                                                     
   3                                                                      
   3  DEVIATIONS FROM IDEAL VALUES.                                       
   3                 RMSD          COUNT                                  
   3   BOND      :   NULL           NULL                                  
   3   ANGLE     :   NULL           NULL                                  
   3   CHIRALITY :   NULL           NULL                                  
   3   PLANARITY :   NULL           NULL                                  
   3   DIHEDRAL  :   NULL           NULL                                  
   3                                                                      
   3  TLS DETAILS                                                         
   3   NUMBER OF TLS GROUPS  : NULL                                       
   3                                                                      
   3  NCS DETAILS                                                         
   3   NUMBER OF NCS GROUPS : NULL                                        
   3                                                                      
   3  OTHER REFINEMENT REMARKS: NULL                                      
   4                                                                      
   4 8AKM COMPLIES WITH FORMAT V. 3.30, 13-JUL-11                         
 100                                                                      
 100 THIS ENTRY HAS BEEN PROCESSED BY PDBE ON 16-AUG-22.                  
 100 THE DEPOSITION ID IS D_1292124688.                                   
 200                                                                      
 200 EXPERIMENTAL DETAILS                                                 
 200  EXPERIMENT TYPE                : X-RAY DIFFRACTION                  
 200  DATE OF DATA COLLECTION        : 22-OCT-18                          
 200  TEMPERATURE           (KELVIN) : 100                                
 200  PH                             : NULL                               
 200  NUMBER OF CRYSTALS USED        : 1                                  
 200                                                                      
 200  SYNCHROTRON              (Y/N) : Y                                  
 200  RADIATION SOURCE               : DIAMOND                            
 200  BEAMLINE                       : I03                                
 200  X-RAY GENERATOR MODEL          : NULL                               
 200  MONOCHROMATIC OR LAUE    (M/L) : M                                  
 200  WAVELENGTH OR RANGE        (A) : 0.78                               
 200  MONOCHROMATOR                  : NULL                               
 200  OPTICS                         : NULL                               
 200                                                                      
 200  DETECTOR TYPE                  : PIXEL                              
 200  DETECTOR MANUFACTURER          : DECTRIS PILATUS3 6M                
 200  INTENSITY-INTEGRATION SOFTWARE : DIALS                              
 200  DATA SCALING SOFTWARE          : AIMLESS                            
 200                                                                      
 200  NUMBER OF UNIQUE REFLECTIONS   : 73687                              
 200  RESOLUTION RANGE HIGH      (A) : 1.250                              
 200  RESOLUTION RANGE LOW       (A) : 47.800                             
 200  REJECTION CRITERIA  (SIGMA(I)) : NULL                               
 200                                                                      
 200 OVERALL.                                                             
 200  COMPLETENESS FOR RANGE     (%) : 100.0                              
 200  DATA REDUNDANCY                : 12.80                              
 200  R MERGE                    (I) : NULL                               
 200  R SYM                      (I) : NULL                               
 200  <I/SIGMA(I)> FOR THE DATA SET  : 12.0000                            
 200                                                                      
 200 IN THE HIGHEST RESOLUTION SHELL.                                     
 200  HIGHEST RESOLUTION SHELL, RANGE HIGH (A) : 1.25                     
 200  HIGHEST RESOLUTION SHELL, RANGE LOW  (A) : 1.27                     
 200  COMPLETENESS FOR SHELL     (%) : NULL                               
 200  DATA REDUNDANCY IN SHELL       : NULL                               
 200  R MERGE FOR SHELL          (I) : NULL                               
 200  R SYM FOR SHELL            (I) : NULL                               
 200  <I/SIGMA(I)> FOR SHELL         : 1.100                              
 200                                                                      
 200 DIFFRACTION PROTOCOL: SINGLE WAVELENGTH                              
 200 METHOD USED TO DETERMINE THE STRUCTURE: MOLECULAR REPLACEMENT        
 200 SOFTWARE USED: PHENIX                                                
 200 STARTING MODEL: 6Z21                                                 
 200                                                                      
 200 REMARK: NULL                                                         
 280                                                                      
 280 CRYSTAL                                                              
 280 SOLVENT CONTENT, VS   (%): 42.38                                     
 280 MATTHEWS COEFFICIENT, VM (ANGSTROMS**3/DA): 2.13                     
 280                                                                      
 280 CRYSTALLIZATION CONDITIONS: 2.0 M AMMONIUM SULPHATE, 5% V/V          
 280  ETHANOL, VAPOR DIFFUSION, SITTING DROP, TEMPERATURE 293.15K         
 290                                                                      
 290 CRYSTALLOGRAPHIC SYMMETRY                                            
 290 SYMMETRY OPERATORS FOR SPACE GROUP: P 21 21 2                        
 290                                                                      
 290      SYMOP   SYMMETRY                                                
 290     NNNMMM   OPERATOR                                                
 290       1555   X,Y,Z                                                   
 290       2555   -X,-Y,Z                                                 
 290       3555   -X+1/2,Y+1/2,-Z                                         
 290       4555   X+1/2,-Y+1/2,-Z                                         
 290                                                                      
 290     WHERE NNN -> OPERATOR NUMBER                                     
 290           MMM -> TRANSLATION VECTOR                                  
 290                                                                      
 290 CRYSTALLOGRAPHIC SYMMETRY TRANSFORMATIONS                            
 290 THE FOLLOWING TRANSFORMATIONS OPERATE ON THE ATOM/HETATM             
 290 RECORDS IN THIS ENTRY TO PRODUCE CRYSTALLOGRAPHICALLY                
 290 RELATED MOLECULES.                                                   
 290   SMTRY1   1  1.000000  0.000000  0.000000        0.00000            
 290   SMTRY2   1  0.000000  1.000000  0.000000        0.00000            
 290   SMTRY3   1  0.000000  0.000000  1.000000        0.00000            
 290   SMTRY1   2 -1.000000  0.000000  0.000000        0.00000            
 290   SMTRY2   2  0.000000 -1.000000  0.000000        0.00000            
 290   SMTRY3   2  0.000000  0.000000  1.000000        0.00000            
 290   SMTRY1   3 -1.000000  0.000000  0.000000       30.13100            
 290   SMTRY2   3  0.000000  1.000000  0.000000       39.25750            
 290   SMTRY3   3  0.000000  0.000000 -1.000000        0.00000            
 290   SMTRY1   4  1.000000  0.000000  0.000000       30.13100            
 290   SMTRY2   4  0.000000 -1.000000  0.000000       39.25750            
 290   SMTRY3   4  0.000000  0.000000 -1.000000        0.00000            
 290                                                                      
 290 REMARK: NULL                                                         
 300                                                                      
 300 BIOMOLECULE: 1                                                       
 300 SEE REMARK 350 FOR THE AUTHOR PROVIDED AND/OR PROGRAM                
 300 GENERATED ASSEMBLY INFORMATION FOR THE STRUCTURE IN                  
 300 THIS ENTRY. THE REMARK MAY ALSO PROVIDE INFORMATION ON               
 300 BURIED SURFACE AREA.                                                 
 350                                                                      
 350 COORDINATES FOR A COMPLETE MULTIMER REPRESENTING THE KNOWN           
 350 BIOLOGICALLY SIGNIFICANT OLIGOMERIZATION STATE OF THE                
 350 MOLECULE CAN BE GENERATED BY APPLYING BIOMT TRANSFORMATIONS          
 350 GIVEN BELOW.  BOTH NON-CRYSTALLOGRAPHIC AND                          
 350 CRYSTALLOGRAPHIC OPERATIONS ARE GIVEN.                               
 350                                                                      
 350 BIOMOLECULE: 1                                                       
 350 SOFTWARE DETERMINED QUATERNARY STRUCTURE: MONOMERIC                  
 350 SOFTWARE USED: PISA                                                  
 350 TOTAL BURIED SURFACE AREA: 700 ANGSTROM**2                           
 350 SURFACE AREA OF THE COMPLEX: 11130 ANGSTROM**2                       
 350 CHANGE IN SOLVENT FREE ENERGY: -27.0 KCAL/MOL                        
 350 APPLY THE FOLLOWING TO CHAINS: A                                     
 350   BIOMT1   1  1.000000  0.000000  0.000000        0.00000            
 350   BIOMT2   1  0.000000  1.000000  0.000000        0.00000            
 350   BIOMT3   1  0.000000  0.000000  1.000000        0.00000            
 375                                                                      
 375 SPECIAL POSITION                                                     
 375 THE FOLLOWING ATOMS ARE FOUND TO BE WITHIN 0.15 ANGSTROMS            
 375 OF A SYMMETRY RELATED ATOM AND ARE ASSUMED TO BE ON SPECIAL          
 375 POSITIONS.                                                           
 375                                                                      
 375 ATOM RES CSSEQI                                                      
 375 S    SO4 A 304  LIES ON A SPECIAL POSITION.                          
 465                                                                      
 465 MISSING RESIDUES                                                     
 465 THE FOLLOWING RESIDUES WERE NOT LOCATED IN THE                       
 465 EXPERIMENT. (M=MODEL NUMBER; RES=RESIDUE NAME; C=CHAIN               
 465 IDENTIFIER; SSSEQ=SEQUENCE NUMBER; I=INSERTION CODE.)                
 465                                                                      
 465   M RES C SSSEQI                                                     
 465     MET A     4                                                      
 465     GLY A     5                                                      
 465     SER A     6                                                      
 465     SER A     7                                                      
 465     HIS A     8                                                      
 465     HIS A     9                                                      
 465     HIS A    10                                                      
 465     HIS A    11                                                      
 465     HIS A    12                                                      
 465     HIS A    13                                                      
 465     SER A    14                                                      
 465     SER A    15                                                      
 465     GLY A    16                                                      
 465     LEU A    17                                                      
 465     VAL A    18                                                      
 465     PRO A    19                                                      
 465     ARG A    20                                                      
 465     GLY A    21                                                      
 465     SER A    22                                                      
 465     HIS A    23                                                      
 465     MET A    24                                                      
 465     GLN A   295                                                      
 500                                                                      
 500 GEOMETRY AND STEREOCHEMISTRY                                         
 500 SUBTOPIC: CLOSE CONTACTS IN SAME ASYMMETRIC UNIT                     
 500                                                                      
 500 THE FOLLOWING ATOMS ARE IN CLOSE CONTACT.                            
 500                                                                      
 500  ATM1  RES C  SSEQI   ATM2  RES C  SSEQI           DISTANCE          
 500   OD1  ASN A   132    HE22  GLN A   166              1.50            
 500   OE2  GLU A   288     O    HOH A   401              1.84            
 500   O    HOH A   423     O    HOH A   426              1.85            
 500   O2   SO4 A   302     O    HOH A   402              1.92            
 500   OD1  ASP A    92     O    HOH A   403              1.93            
 500   O    HOH A   582     O    HOH A   638              1.97            
 500   OD2  ASP A   271     O    HOH A   404              2.10            
 500   OG   SER A    70     O3   N9X A   306              2.17            
 500   OD1  ASP A   271     O    HOH A   405              2.17            
 500   OG   SER A    70     O3   N9X A   306              2.17            
 500                                                                      
 500 REMARK: NULL                                                         
 500                                                                      
 500 GEOMETRY AND STEREOCHEMISTRY                                         
 500 SUBTOPIC: CLOSE CONTACTS                                             
 500                                                                      
 500 THE FOLLOWING ATOMS THAT ARE RELATED BY CRYSTALLOGRAPHIC             
 500 SYMMETRY ARE IN CLOSE CONTACT.  AN ATOM LOCATED WITHIN 0.15          
 500 ANGSTROMS OF A SYMMETRY RELATED ATOM IS ASSUMED TO BE ON A           
 500 SPECIAL POSITION AND IS, THEREFORE, LISTED IN REMARK 375             
 500 INSTEAD OF REMARK 500.  ATOMS WITH NON-BLANK ALTERNATE               
 500 LOCATION INDICATORS ARE NOT INCLUDED IN THE CALCULATIONS.            
 500                                                                      
 500 DISTANCE CUTOFF:                                                     
 500 2.2 ANGSTROMS FOR CONTACTS NOT INVOLVING HYDROGEN ATOMS              
 500 1.6 ANGSTROMS FOR CONTACTS INVOLVING HYDROGEN ATOMS                  
 500                                                                      
 500  ATM1  RES C  SSEQI   ATM2  RES C  SSEQI  SSYMOP   DISTANCE          
 500   O    HOH A   581     O    HOH A   613     1556     1.97            
 500                                                                      
 500 REMARK: NULL                                                         
 500                                                                      
 500 GEOMETRY AND STEREOCHEMISTRY                                         
 500 SUBTOPIC: TORSION ANGLES                                             
 500                                                                      
 500 TORSION ANGLES OUTSIDE THE EXPECTED RAMACHANDRAN REGIONS:            
 500 (M=MODEL NUMBER; RES=RESIDUE NAME; C=CHAIN IDENTIFIER;               
 500 SSEQ=SEQUENCE NUMBER; I=INSERTION CODE).                             
 500                                                                      
 500 STANDARD TABLE:                                                      
 500 FORMAT:(10X,I3,1X,A3,1X,A1,I4,A1,4X,F7.2,3X,F7.2)                    
 500                                                                      
 500 EXPECTED VALUES: GJ KLEYWEGT AND TA JONES (1996). PHI/PSI-           
 500 CHOLOGY: RAMACHANDRAN REVISITED. STRUCTURE 4, 1395 - 1400            
 500                                                                      
 500  M RES CSSEQI        PSI       PHI                                   
 500    CYS A  69     -144.07     53.00                                   
 500    TRP A 105       65.39     61.50                                   
 500    LEU A 167      -62.39     68.56                                   
 500    ARG A 220     -123.33   -112.86                                   
 500                                                                      
 500 REMARK: NULL                                                         
 610                                                                      
 610 MISSING HETEROATOM                                                   
 610 THE FOLLOWING RESIDUES HAVE MISSING ATOMS (M=MODEL NUMBER;           
 610 RES=RESIDUE NAME; C=CHAIN IDENTIFIER; SSEQ=SEQUENCE NUMBER;          
 610 I=INSERTION CODE):                                                   
 610   M RES C SSEQI                                                      
 610     N9X A  306                                                       

>  <DBREF>
 8AKM A   25   295  UNP    Q9F663   BLKPC_KLEPN     25    293             

>  <SEQADV>
 8AKM MET A    4  UNP  Q9F663              INITIATING METHIONINE          
 8AKM GLY A    5  UNP  Q9F663              EXPRESSION TAG                 
 8AKM SER A    6  UNP  Q9F663              EXPRESSION TAG                 
 8AKM SER A    7  UNP  Q9F663              EXPRESSION TAG                 
 8AKM HIS A    8  UNP  Q9F663              EXPRESSION TAG                 
 8AKM HIS A    9  UNP  Q9F663              EXPRESSION TAG                 
 8AKM HIS A   10  UNP  Q9F663              EXPRESSION TAG                 
 8AKM HIS A   11  UNP  Q9F663              EXPRESSION TAG                 
 8AKM HIS A   12  UNP  Q9F663              EXPRESSION TAG                 
 8AKM HIS A   13  UNP  Q9F663              EXPRESSION TAG                 
 8AKM SER A   14  UNP  Q9F663              EXPRESSION TAG                 
 8AKM SER A   15  UNP  Q9F663              EXPRESSION TAG                 
 8AKM GLY A   16  UNP  Q9F663              EXPRESSION TAG                 
 8AKM LEU A   17  UNP  Q9F663              EXPRESSION TAG                 
 8AKM VAL A   18  UNP  Q9F663              EXPRESSION TAG                 
 8AKM PRO A   19  UNP  Q9F663              EXPRESSION TAG                 
 8AKM ARG A   20  UNP  Q9F663              EXPRESSION TAG                 
 8AKM GLY A   21  UNP  Q9F663              EXPRESSION TAG                 
 8AKM SER A   22  UNP  Q9F663              EXPRESSION TAG                 
 8AKM HIS A   23  UNP  Q9F663              EXPRESSION TAG                 
 8AKM MET A   24  UNP  Q9F663              EXPRESSION TAG                 
 8AKM GLN A  166  UNP  Q9F663    GLU   165 ENGINEERED MUTATION            

>  <SEQRES>
   1 A  290  MET GLY SER SER HIS HIS HIS HIS HIS HIS SER SER GLY          
   2 A  290  LEU VAL PRO ARG GLY SER HIS MET LEU THR ASN LEU VAL          
   3 A  290  ALA GLU PRO PHE ALA LYS LEU GLU GLN ASP PHE GLY GLY          
   4 A  290  SER ILE GLY VAL TYR ALA MET ASP THR GLY SER GLY ALA          
   5 A  290  THR VAL SER TYR ARG ALA GLU GLU ARG PHE PRO LEU CYS          
   6 A  290  SER SER PHE LYS GLY PHE LEU ALA ALA ALA VAL LEU ALA          
   7 A  290  ARG SER GLN GLN GLN ALA GLY LEU LEU ASP THR PRO ILE          
   8 A  290  ARG TYR GLY LYS ASN ALA LEU VAL PRO TRP SER PRO ILE          
   9 A  290  SER GLU LYS TYR LEU THR THR GLY MET THR VAL ALA GLU          
  10 A  290  LEU SER ALA ALA ALA VAL GLN TYR SER ASP ASN ALA ALA          
  11 A  290  ALA ASN LEU LEU LEU LYS GLU LEU GLY GLY PRO ALA GLY          
  12 A  290  LEU THR ALA PHE MET ARG SER ILE GLY ASP THR THR PHE          
  13 A  290  ARG LEU ASP ARG TRP GLN LEU GLU LEU ASN SER ALA ILE          
  14 A  290  PRO GLY ASP ALA ARG ASP THR SER SER PRO ARG ALA VAL          
  15 A  290  THR GLU SER LEU GLN LYS LEU THR LEU GLY SER ALA LEU          
  16 A  290  ALA ALA PRO GLN ARG GLN GLN PHE VAL ASP TRP LEU LYS          
  17 A  290  GLY ASN THR THR GLY ASN HIS ARG ILE ARG ALA ALA VAL          
  18 A  290  PRO ALA ASP TRP ALA VAL GLY ASP LYS THR GLY THR CYS          
  19 A  290  GLY VAL TYR GLY THR ALA ASN ASP TYR ALA VAL VAL TRP          
  20 A  290  PRO THR GLY ARG ALA PRO ILE VAL LEU ALA VAL TYR THR          
  21 A  290  ARG ALA PRO ASN LYS ASP ASP LYS HIS SER GLU ALA VAL          
  22 A  290  ILE ALA ALA ALA ALA ARG LEU ALA LEU GLU GLY LEU GLY          
  23 A  290  VAL ASN GLY GLN                                              

>  <HET>
 SO4  A 301       5                                                       
 SO4  A 302       5                                                       
 SO4  A 303       5                                                       
 SO4  A 304       5                                                       
 GOL  A 305      26                                                       
 N9X  A 306      92                                                       

>  <HETNAM>
     SO4 SULFATE ION                                                      
     GOL GLYCEROL                                                         
     N9X ERTAPENEM                                                        

>  <HETSYN>
     GOL GLYCERIN; PROPANE-1,2,3-TRIOL                                    
     N9X (3~{R},4~{R},5~{S})-3-[(3~{S},5~{R})-5-[(4-                      
   2 N9X  CARBOXYPHENYL)CARBAMOYL]PYRROLIDIN-3-YL]SULFANYL-4-             
   3 N9X  METHYL-5-[(2~{S},3~{R})-3-OXIDANYL-1-OXIDANYLIDENE-             
   4 N9X  BUTAN-2-YL]PYRROLIDINE-2-CARBOXYLIC ACID                        

>  <FORMUL>
   2  SO4    4(O4 S 2-)                                                   
   6  GOL    C3 H8 O3                                                     
   7  N9X    C22 H27 N3 O7 S                                              
   8  HOH   *254(H2 O)                                                    

>  <HELIX>
   1 AA1 PRO A   32  GLY A   41  1                                  10    
   2 AA2 SER A   71  GLN A   87  1                                  17    
   3 AA3 GLY A   98  LEU A  102  5                                   5    
   4 AA4 ILE A  108  LEU A  113  5                                   6    
   5 AA5 VAL A  119  TYR A  129  1                                  11    
   6 AA6 ASP A  131  LEU A  142  1                                  12    
   7 AA7 GLY A  143  ILE A  155  1                                  13    
   8 AA8 LEU A  167  SER A  171  5                                   5    
   9 AA9 SER A  182  LEU A  195  1                                  14    
  10 AB1 ALA A  200  GLY A  213  1                                  14    
  11 AB2 ARG A  220  VAL A  225  5                                   6    
  12 AB3 SER A  275  LEU A  290  1                                  16    

>  <SHEET>
   1 AA1 5 THR A  56  TYR A  60  0                                        
   2 AA1 5 SER A  43  ASP A  50 -1  N  VAL A  46   O  TYR A  60           
   3 AA1 5 ILE A 259  ARG A 266 -1  O  ARG A 266   N  SER A  43           
   4 AA1 5 ALA A 244  TRP A 251 -1  N  VAL A 250   O  ILE A 259           
   5 AA1 5 ALA A 230  THR A 237 -1  N  ALA A 230   O  TRP A 251           
   1 AA2 2 PHE A  66  PRO A  67  0                                        
   2 AA2 2 THR A 180  SER A 181 -1  O  SER A 181   N  PHE A  66           
   1 AA3 2 PRO A  94  ILE A  95  0                                        
   2 AA3 2 MET A 117  THR A 118 -1  O  MET A 117   N  ILE A  95           

>  <SSBOND>
   1 CYS A   69    CYS A  238                          1555   1555  2.03  

>  <LINK>
       OG  SER A  70                 C12AN9X A 306     1555   1555  1.37  
       OG  SER A  70                 C12BN9X A 306     1555   1555  1.37  

>  <ORIGX1>
      1.000000  0.000000  0.000000        0.00000                         

>  <ORIGX2>
      0.000000  1.000000  0.000000        0.00000                         

>  <ORIGX3>
      0.000000  0.000000  1.000000        0.00000                         

>  <SCALE1>
      0.016594  0.000000  0.000000        0.00000                         

>  <SCALE2>
      0.000000  0.012736  0.000000        0.00000                         

>  <SCALE3>
      0.000000  0.000000  0.017987        0.00000                         

>  <ANISOU>
  664  N   SER A  70      950   1890   1253   -162     95     -4       N  
  665  CA  SER A  70     1254   2007   1257   -160   -190    102       C  
  666  C   SER A  70     1049   1972   1283   -307   -296     71       C  
  667  O   SER A  70     1144   1965   1308   -212   -242     14       O  
  668  CB  SER A  70     1450   1973   1152   -174    -96    153       C  
  669  OG  SER A  70     2042   2221   1315   -157   -326    164       O  

>  <MASTER>
      344    0    6   12    9    0    0    6 2302    1  140   23          

$$$$
