start_structures/Ligand_Substrate/Ligand_Complex_Stripped/NBF_1YMS.pdb
 OpenBabel08222315203D

 26 27  0  0  1  0  0  0  0  0999 V2000
   20.1860   58.3240    8.2460 N   0  0  0  0  0  0  0  0  0  0  0  0
   19.7040   57.5120    7.1310 C   0  0  2  0  0  0  0  0  0  0  0  0
   18.3020   57.7540    6.6030 C   0  0  0  0  0  0  0  0  0  0  0  0
   17.9220   57.1440    5.5950 O   0  0  0  0  0  0  0  0  0  0  0  0
   19.8900   56.0180    7.4260 C   0  0  0  0  0  0  0  0  0  0  0  0
   21.2920   55.7250    7.4590 O   0  0  0  0  0  0  0  0  0  0  0  0
   24.2730   51.5600   11.2940 C   0  0  0  0  0  0  0  0  0  0  0  0
   24.6560   51.9490   12.6010 C   0  0  0  0  0  0  0  0  0  0  0  0
   24.2020   53.3080   12.6650 O   0  0  0  0  0  0  0  0  0  0  0  0
   25.0850   54.3030   13.0100 C   0  0  0  0  0  0  0  0  0  0  0  0
   25.6710   55.0610   11.9830 C   0  0  0  0  0  0  0  0  0  0  0  0
   25.2130   54.8820   10.5180 C   0  0  0  0  0  0  0  0  0  0  0  0
   26.0290   54.5840    9.6460 O   0  0  0  0  0  0  0  0  0  0  0  0
   23.8930   55.0760   10.2540 N   0  0  0  0  0  0  0  0  0  0  0  0
   23.2930   54.9650    8.9450 C   0  0  0  0  0  0  0  0  0  0  0  0
   21.7420   55.2600    8.9420 B   0  0  0  0  0  0  0  0  0  0  0  0
   21.4180   56.3080    9.8600 O   0  0  0  0  0  0  0  0  0  0  0  0
   21.0190   54.0620    9.3020 O   0  0  0  0  0  0  0  0  0  0  0  0
   26.6250   56.1010   12.3780 C   0  0  0  0  0  0  0  0  0  0  0  0
   26.9310   56.3440   13.7960 C   0  0  0  0  0  0  0  0  0  0  0  0
   27.8540   57.3550   14.1550 C   0  0  0  0  0  0  0  0  0  0  0  0
   28.4930   58.1310   13.2250 C   0  0  0  0  0  0  0  0  0  0  0  0
   28.2420   57.9390   11.8320 C   0  0  0  0  0  0  0  0  0  0  0  0
   27.3290   56.9500   11.4190 C   0  0  0  0  0  0  0  0  0  0  0  0
   26.2820   55.5400   14.7620 C   0  0  0  0  0  0  0  0  0  0  0  0
   25.3930   54.5480   14.4140 C   0  0  0  0  0  0  0  0  0  0  0  0
  2  5  1  0  0  0  0
  2  1  1  1  0  0  0
  3  2  1  0  0  0  0
  4  3  2  0  0  0  0
  5  6  1  0  0  0  0
  6 16  1  0  0  0  0
  7  8  1  0  0  0  0
  8  9  1  0  0  0  0
  9 10  1  0  0  0  0
 10 11  2  0  0  0  0
 10 26  1  0  0  0  0
 11 12  1  0  0  0  0
 11 19  1  0  0  0  0
 12 13  2  0  0  0  0
 12 14  1  0  0  0  0
 14 15  1  0  0  0  0
 15 16  1  0  0  0  0
 16 17  1  0  0  0  0
 16 18  1  0  0  0  0
 19 20  2  0  0  0  0
 19 24  1  0  0  0  0
 20 21  1  0  0  0  0
 20 25  1  0  0  0  0
 21 22  2  0  0  0  0
 22 23  1  0  0  0  0
 23 24  2  0  0  0  0
 25 26  2  0  0  0  0
M  END
>  <HEADER>
    HYDROLASE                               21-JAN-05   1YMS              

>  <TITLE>
    X-RAY CRYSTALLOGRAPHIC STRUCTURE OF CTX-M-9 BETA-LACTAMASE            
   2 COMPLEXED WITH NAFCININ-LIKE BORONIC ACID INHIBITOR                  

>  <COMPND>
    MOL_ID: 1;                                                            
   2 MOLECULE: BETA-LACTAMASE CTX-M-9;                                    
   3 CHAIN: A, B;                                                         
   4 EC: 3.5.2.6;                                                         
   5 ENGINEERED: YES                                                      

>  <SOURCE>
    MOL_ID: 1;                                                            
   2 ORGANISM_SCIENTIFIC: ESCHERICHIA COLI;                               
   3 ORGANISM_TAXID: 562;                                                 
   4 GENE: CTX-M;                                                         
   5 EXPRESSION_SYSTEM: ESCHERICHIA COLI BL21(DE3);                       
   6 EXPRESSION_SYSTEM_TAXID: 469008;                                     
   7 EXPRESSION_SYSTEM_STRAIN: BL21(DE3);                                 
   8 EXPRESSION_SYSTEM_VECTOR_TYPE: PLASMID;                              
   9 EXPRESSION_SYSTEM_PLASMID: PET-9A                                    

>  <KEYWDS>
    CTX-M, BETA-LACTAMASE, TRANSITION STATE, ACYLATION,                   
   2 HYDROLASE                                                            

>  <EXPDTA>
    X-RAY DIFFRACTION                                                     

>  <AUTHOR>
    Y.CHEN,B.SHOICHET,R.BONNET                                            

>  <REVDAT>
   2   24-FEB-09 1YMS    1       VERSN                                    
   1   26-APR-05 1YMS    0                                                

>  <JRNL>
      AUTH   Y.CHEN,B.SHOICHET,R.BONNET                                   
      TITL   STRUCTURE, FUNCTION, AND INHIBITION ALONG THE                
      TITL 2 REACTION COORDINATE OF CTX-M BETA-LACTAMASES.                
      REF    J.AM.CHEM.SOC.                V. 127  5423 2005              
      REFN                   ISSN 0002-7863                               
      PMID   15826180                                                     
      DOI    10.1021/JA042850A                                            

>  <REMARK>
   1                                                                      
   2                                                                      
   2 RESOLUTION.    1.60 ANGSTROMS.                                       
   3                                                                      
   3 REFINEMENT.                                                          
   3   PROGRAM     : CNS 1.1                                              
   3   AUTHORS     : BRUNGER,ADAMS,CLORE,DELANO,GROS,GROSSE-              
   3               : KUNSTLEVE,JIANG,KUSZEWSKI,NILGES, PANNU,             
   3               : READ,RICE,SIMONSON,WARREN                            
   3                                                                      
   3  REFINEMENT TARGET : ENGH & HUBER                                    
   3                                                                      
   3  DATA USED IN REFINEMENT.                                            
   3   RESOLUTION RANGE HIGH (ANGSTROMS) : 1.60                           
   3   RESOLUTION RANGE LOW  (ANGSTROMS) : 19.75                          
   3   DATA CUTOFF            (SIGMA(F)) : 0.000                          
   3   DATA CUTOFF HIGH         (ABS(F)) : 81987.040                      
   3   DATA CUTOFF LOW          (ABS(F)) : 0.0000                         
   3   COMPLETENESS (WORKING+TEST)   (%) : 94.7                           
   3   NUMBER OF REFLECTIONS             : 55531                          
   3                                                                      
   3  FIT TO DATA USED IN REFINEMENT.                                     
   3   CROSS-VALIDATION METHOD          : THROUGHOUT                      
   3   FREE R VALUE TEST SET SELECTION  : RANDOM                          
   3   R VALUE            (WORKING SET) : 0.157                           
   3   FREE R VALUE                     : 0.193                           
   3   FREE R VALUE TEST SET SIZE   (%) : 5.100                           
   3   FREE R VALUE TEST SET COUNT      : 2820                            
   3   ESTIMATED ERROR OF FREE R VALUE  : 0.004                           
   3                                                                      
   3  FIT IN THE HIGHEST RESOLUTION BIN.                                  
   3   TOTAL NUMBER OF BINS USED           : 6                            
   3   BIN RESOLUTION RANGE HIGH       (A) : 1.60                         
   3   BIN RESOLUTION RANGE LOW        (A) : 1.70                         
   3   BIN COMPLETENESS (WORKING+TEST) (%) : 88.60                        
   3   REFLECTIONS IN BIN    (WORKING SET) : 8206                         
   3   BIN R VALUE           (WORKING SET) : 0.2120                       
   3   BIN FREE R VALUE                    : 0.2380                       
   3   BIN FREE R VALUE TEST SET SIZE  (%) : 4.80                         
   3   BIN FREE R VALUE TEST SET COUNT     : 413                          
   3   ESTIMATED ERROR OF BIN FREE R VALUE : 0.012                        
   3                                                                      
   3  NUMBER OF NON-HYDROGEN ATOMS USED IN REFINEMENT.                    
   3   PROTEIN ATOMS            : 3949                                    
   3   NUCLEIC ACID ATOMS       : 0                                       
   3   HETEROGEN ATOMS          : 40                                      
   3   SOLVENT ATOMS            : 804                                     
   3                                                                      
   3  B VALUES.                                                           
   3   FROM WILSON PLOT           (A**2) : 10.80                          
   3   MEAN B VALUE      (OVERALL, A**2) : 10.80                          
   3   OVERALL ANISOTROPIC B VALUE.                                       
   3    B11 (A**2) : -0.20000                                             
   3    B22 (A**2) : -0.81000                                             
   3    B33 (A**2) : 1.01000                                              
   3    B12 (A**2) : 0.00000                                              
   3    B13 (A**2) : 1.13000                                              
   3    B23 (A**2) : 0.00000                                              
   3                                                                      
   3  ESTIMATED COORDINATE ERROR.                                         
   3   ESD FROM LUZZATI PLOT        (A) : 0.14                            
   3   ESD FROM SIGMAA              (A) : 0.13                            
   3   LOW RESOLUTION CUTOFF        (A) : 5.00                            
   3                                                                      
   3  CROSS-VALIDATED ESTIMATED COORDINATE ERROR.                         
   3   ESD FROM C-V LUZZATI PLOT    (A) : 0.18                            
   3   ESD FROM C-V SIGMAA          (A) : 0.14                            
   3                                                                      
   3  RMS DEVIATIONS FROM IDEAL VALUES.                                   
   3   BOND LENGTHS                 (A) : 0.009                           
   3   BOND ANGLES            (DEGREES) : 1.50                            
   3   DIHEDRAL ANGLES        (DEGREES) : 22.60                           
   3   IMPROPER ANGLES        (DEGREES) : 1.11                            
   3                                                                      
   3  ISOTROPIC THERMAL MODEL : RESTRAINED                                
   3                                                                      
   3  ISOTROPIC THERMAL FACTOR RESTRAINTS.    RMS    SIGMA                
   3   MAIN-CHAIN BOND              (A**2) : 1.270 ; 1.500                
   3   MAIN-CHAIN ANGLE             (A**2) : 1.780 ; 2.000                
   3   SIDE-CHAIN BOND              (A**2) : 1.580 ; 2.000                
   3   SIDE-CHAIN ANGLE             (A**2) : 2.390 ; 2.500                
   3                                                                      
   3  BULK SOLVENT MODELING.                                              
   3   METHOD USED : FLAT MODEL                                           
   3   KSOL        : 0.36                                                 
   3   BSOL        : 41.37                                                
   3                                                                      
   3  NCS MODEL : NULL                                                    
   3                                                                      
   3  NCS RESTRAINTS.                         RMS   SIGMA/WEIGHT          
   3   GROUP  1  POSITIONAL            (A) : NULL  ; NULL                 
   3   GROUP  1  B-FACTOR           (A**2) : NULL  ; NULL                 
   3                                                                      
   3  PARAMETER FILE  1  : PROTEIN_REP.PARAM_SNA                          
   3  PARAMETER FILE  2  : WATER_REP.PARAM                                
   3  PARAMETER FILE  3  : NULL                                           
   3  TOPOLOGY FILE  1   : PROTEIN.TOP_SNA                                
   3  TOPOLOGY FILE  2   : WATER.TOP                                      
   3  TOPOLOGY FILE  3   : NULL                                           
   3                                                                      
   3  OTHER REFINEMENT REMARKS: ONLY 5 ATOMS WERE MODELED FOR A25         
   3  GLN WITH THE SIDE CHAIN TRUNCATED AFTER CB                          
   4                                                                      
   4 1YMS COMPLIES WITH FORMAT V. 3.15, 01-DEC-08                         
 100                                                                      
 100 THIS ENTRY HAS BEEN PROCESSED BY RCSB ON 07-FEB-05.                  
 100 THE RCSB ID CODE IS RCSB031695.                                      
 200                                                                      
 200 EXPERIMENTAL DETAILS                                                 
 200  EXPERIMENT TYPE                : X-RAY DIFFRACTION                  
 200  DATE OF DATA COLLECTION        : 17-JUL-04                          
 200  TEMPERATURE           (KELVIN) : 100                                
 200  PH                             : 8.8                                
 200  NUMBER OF CRYSTALS USED        : 1                                  
 200                                                                      
 200  SYNCHROTRON              (Y/N) : Y                                  
 200  RADIATION SOURCE               : ALS                                
 200  BEAMLINE                       : 8.3.1                              
 200  X-RAY GENERATOR MODEL          : NULL                               
 200  MONOCHROMATIC OR LAUE    (M/L) : M                                  
 200  WAVELENGTH OR RANGE        (A) : 1.11587                            
 200  MONOCHROMATOR                  : DOUBLE CRYSTAL                     
 200  OPTICS                         : MIRRORS                            
 200                                                                      
 200  DETECTOR TYPE                  : CCD                                
 200  DETECTOR MANUFACTURER          : ADSC QUANTUM 4                     
 200  INTENSITY-INTEGRATION SOFTWARE : DENZO                              
 200  DATA SCALING SOFTWARE          : SCALEPACK                          
 200                                                                      
 200  NUMBER OF UNIQUE REFLECTIONS   : 57897                              
 200  RESOLUTION RANGE HIGH      (A) : 1.600                              
 200  RESOLUTION RANGE LOW       (A) : 22.000                             
 200  REJECTION CRITERIA  (SIGMA(I)) : -3.000                             
 200                                                                      
 200 OVERALL.                                                             
 200  COMPLETENESS FOR RANGE     (%) : 98.6                               
 200  DATA REDUNDANCY                : 5.220                              
 200  R MERGE                    (I) : 0.06900                            
 200  R SYM                      (I) : NULL                               
 200  <I/SIGMA(I)> FOR THE DATA SET  : 11.0000                            
 200                                                                      
 200 IN THE HIGHEST RESOLUTION SHELL.                                     
 200  HIGHEST RESOLUTION SHELL, RANGE HIGH (A) : 1.60                     
 200  HIGHEST RESOLUTION SHELL, RANGE LOW  (A) : 1.66                     
 200  COMPLETENESS FOR SHELL     (%) : 96.7                               
 200  DATA REDUNDANCY IN SHELL       : NULL                               
 200  R MERGE FOR SHELL          (I) : 0.34700                            
 200  R SYM FOR SHELL            (I) : NULL                               
 200  <I/SIGMA(I)> FOR SHELL         : 2.480                              
 200                                                                      
 200 DIFFRACTION PROTOCOL: SINGLE WAVELENGTH                              
 200 METHOD USED TO DETERMINE THE STRUCTURE: MOLECULAR REPLACEMENT        
 200 SOFTWARE USED: CNS                                                   
 200 STARTING MODEL: 1YLJ                                                 
 200                                                                      
 200 REMARK: NULL                                                         
 280                                                                      
 280 CRYSTAL                                                              
 280 SOLVENT CONTENT, VS   (%): 38.76                                     
 280 MATTHEWS COEFFICIENT, VM (ANGSTROMS**3/DA): 2.02                     
 280                                                                      
 280 CRYSTALLIZATION CONDITIONS: POTASSIUM PHOSPHATE, PH 8.8, VAPOR       
 280  DIFFUSION, HANGING DROP, TEMPERATURE 293K                           
 290                                                                      
 290 CRYSTALLOGRAPHIC SYMMETRY                                            
 290 SYMMETRY OPERATORS FOR SPACE GROUP: P 1 21 1                         
 290                                                                      
 290      SYMOP   SYMMETRY                                                
 290     NNNMMM   OPERATOR                                                
 290       1555   X,Y,Z                                                   
 290       2555   -X,Y+1/2,-Z                                             
 290                                                                      
 290     WHERE NNN -> OPERATOR NUMBER                                     
 290           MMM -> TRANSLATION VECTOR                                  
 290                                                                      
 290 CRYSTALLOGRAPHIC SYMMETRY TRANSFORMATIONS                            
 290 THE FOLLOWING TRANSFORMATIONS OPERATE ON THE ATOM/HETATM             
 290 RECORDS IN THIS ENTRY TO PRODUCE CRYSTALLOGRAPHICALLY                
 290 RELATED MOLECULES.                                                   
 290   SMTRY1   1  1.000000  0.000000  0.000000        0.00000            
 290   SMTRY2   1  0.000000  1.000000  0.000000        0.00000            
 290   SMTRY3   1  0.000000  0.000000  1.000000        0.00000            
 290   SMTRY1   2 -1.000000  0.000000  0.000000        0.00000            
 290   SMTRY2   2  0.000000  1.000000  0.000000       53.41250            
 290   SMTRY3   2  0.000000  0.000000 -1.000000        0.00000            
 290                                                                      
 290 REMARK: NULL                                                         
 300                                                                      
 300 BIOMOLECULE: 1, 2                                                    
 300 SEE REMARK 350 FOR THE AUTHOR PROVIDED AND/OR PROGRAM                
 300 GENERATED ASSEMBLY INFORMATION FOR THE STRUCTURE IN                  
 300 THIS ENTRY. THE REMARK MAY ALSO PROVIDE INFORMATION ON               
 300 BURIED SURFACE AREA.                                                 
 350                                                                      
 350 COORDINATES FOR A COMPLETE MULTIMER REPRESENTING THE KNOWN           
 350 BIOLOGICALLY SIGNIFICANT OLIGOMERIZATION STATE OF THE                
 350 MOLECULE CAN BE GENERATED BY APPLYING BIOMT TRANSFORMATIONS          
 350 GIVEN BELOW.  BOTH NON-CRYSTALLOGRAPHIC AND                          
 350 CRYSTALLOGRAPHIC OPERATIONS ARE GIVEN.                               
 350                                                                      
 350 BIOMOLECULE: 1                                                       
 350 AUTHOR DETERMINED BIOLOGICAL UNIT: MONOMERIC                         
 350 APPLY THE FOLLOWING TO CHAINS: A                                     
 350   BIOMT1   1  1.000000  0.000000  0.000000        0.00000            
 350   BIOMT2   1  0.000000  1.000000  0.000000        0.00000            
 350   BIOMT3   1  0.000000  0.000000  1.000000        0.00000            
 350                                                                      
 350 BIOMOLECULE: 2                                                       
 350 AUTHOR DETERMINED BIOLOGICAL UNIT: MONOMERIC                         
 350 APPLY THE FOLLOWING TO CHAINS: B                                     
 350   BIOMT1   1  1.000000  0.000000  0.000000        0.00000            
 350   BIOMT2   1  0.000000  1.000000  0.000000        0.00000            
 350   BIOMT3   1  0.000000  0.000000  1.000000        0.00000            
 465                                                                      
 465 MISSING RESIDUES                                                     
 465 THE FOLLOWING RESIDUES WERE NOT LOCATED IN THE                       
 465 EXPERIMENT. (M=MODEL NUMBER; RES=RESIDUE NAME; C=CHAIN               
 465 IDENTIFIER; SSSEQ=SEQUENCE NUMBER; I=INSERTION CODE.)                
 465                                                                      
 465   M RES C SSSEQI                                                     
 465     GLN B    25                                                      
 465     THR B    26                                                      
 470                                                                      
 470 MISSING ATOM                                                         
 470 THE FOLLOWING RESIDUES HAVE MISSING ATOMS(M=MODEL NUMBER;            
 470 RES=RESIDUE NAME; C=CHAIN IDENTIFIER; SSEQ=SEQUENCE NUMBER;          
 470 I=INSERTION CODE):                                                   
 470   M RES CSSEQI  ATOMS                                                
 470     GLN A  25    CG   CD   OE1  NE2                                  
 500                                                                      
 500 GEOMETRY AND STEREOCHEMISTRY                                         
 500 SUBTOPIC: TORSION ANGLES                                             
 500                                                                      
 500 TORSION ANGLES OUTSIDE THE EXPECTED RAMACHANDRAN REGIONS:            
 500 (M=MODEL NUMBER; RES=RESIDUE NAME; C=CHAIN IDENTIFIER;               
 500 SSEQ=SEQUENCE NUMBER; I=INSERTION CODE).                             
 500                                                                      
 500 STANDARD TABLE:                                                      
 500 FORMAT:(10X,I3,1X,A3,1X,A1,I4,A1,4X,F7.2,3X,F7.2)                    
 500                                                                      
 500 EXPECTED VALUES: GJ KLEYWEGT AND TA JONES (1996). PHI/PSI-           
 500 CHOLOGY: RAMACHANDRAN REVISITED. STRUCTURE 4, 1395 - 1400            
 500                                                                      
 500  M RES CSSEQI        PSI       PHI                                   
 500    CYS A  69     -141.50     55.22                                   
 500    VAL A 103     -136.39   -116.95                                   
 500    SER A 220     -124.13   -101.82                                   
 500    ASP B  53       12.81   -147.63                                   
 500    CYS B  69     -142.27     52.07                                   
 500    VAL B 103     -134.53   -114.52                                   
 500    SER B 220     -124.36   -103.85                                   
 500                                                                      
 500 REMARK: NULL                                                         
 525                                                                      
 525 SOLVENT                                                              
 525                                                                      
 525 THE SOLVENT MOLECULES HAVE CHAIN IDENTIFIERS THAT                    
 525 INDICATE THE POLYMER CHAIN WITH WHICH THEY ARE MOST                  
 525 CLOSELY ASSOCIATED. THE REMARK LISTS ALL THE SOLVENT                 
 525 MOLECULES WHICH ARE MORE THAN 5A AWAY FROM THE                       
 525 NEAREST POLYMER CHAIN (M = MODEL NUMBER;                             
 525 RES=RESIDUE NAME; C=CHAIN IDENTIFIER; SSEQ=SEQUENCE                  
 525 NUMBER; I=INSERTION CODE):                                           
 525                                                                      
 525  M RES CSSEQI                                                        
 525    HOH A2451        DISTANCE =  5.53 ANGSTROMS                       
 800                                                                      
 800 SITE                                                                 
 800 SITE_IDENTIFIER: AC1                                                 
 800 EVIDENCE_CODE: SOFTWARE                                              
 800 SITE_DESCRIPTION: BINDING SITE FOR RESIDUE NBF A 1001                
 800 SITE_IDENTIFIER: AC2                                                 
 800 EVIDENCE_CODE: SOFTWARE                                              
 800 SITE_DESCRIPTION: BINDING SITE FOR RESIDUE NBF B 1002                
 900                                                                      
 900 RELATED ENTRIES                                                      
 900 RELATED ID: 1YLJ   RELATED DB: PDB                                   
 900 RELATED ID: 1YLY   RELATED DB: PDB                                   
 900 RELATED ID: 1YM1   RELATED DB: PDB                                   

>  <DBREF>
 1YMS A   25   290  UNP    Q9L5C8   Q9L5C8_ECOLI    29    291             
 1YMS B   25   290  UNP    Q9L5C8   Q9L5C8_ECOLI    29    291             

>  <SEQRES>
   1 A  263  GLN THR SER ALA VAL GLN GLN LYS LEU ALA ALA LEU GLU          
   2 A  263  LYS SER SER GLY GLY ARG LEU GLY VAL ALA LEU ILE ASP          
   3 A  263  THR ALA ASP ASN THR GLN VAL LEU TYR ARG GLY ASP GLU          
   4 A  263  ARG PHE PRO MET CYS SER THR SER LYS VAL MET ALA ALA          
   5 A  263  ALA ALA VAL LEU LYS GLN SER GLU THR GLN LYS GLN LEU          
   6 A  263  LEU ASN GLN PRO VAL GLU ILE LYS PRO ALA ASP LEU VAL          
   7 A  263  ASN TYR ASN PRO ILE ALA GLU LYS HIS VAL ASN GLY THR          
   8 A  263  MET THR LEU ALA GLU LEU SER ALA ALA ALA LEU GLN TYR          
   9 A  263  SER ASP ASN THR ALA MET ASN LYS LEU ILE ALA GLN LEU          
  10 A  263  GLY GLY PRO GLY GLY VAL THR ALA PHE ALA ARG ALA ILE          
  11 A  263  GLY ASP GLU THR PHE ARG LEU ASP ARG THR GLU PRO THR          
  12 A  263  LEU ASN THR ALA ILE PRO GLY ASP PRO ARG ASP THR THR          
  13 A  263  THR PRO ARG ALA MET ALA GLN THR LEU ARG GLN LEU THR          
  14 A  263  LEU GLY HIS ALA LEU GLY GLU THR GLN ARG ALA GLN LEU          
  15 A  263  VAL THR TRP LEU LYS GLY ASN THR THR GLY ALA ALA SER          
  16 A  263  ILE ARG ALA GLY LEU PRO THR SER TRP THR ALA GLY ASP          
  17 A  263  LYS THR GLY SER GLY ASP TYR GLY THR THR ASN ASP ILE          
  18 A  263  ALA VAL ILE TRP PRO GLN GLY ARG ALA PRO LEU VAL LEU          
  19 A  263  VAL THR TYR PHE THR GLN PRO GLN GLN ASN ALA GLU SER          
  20 A  263  ARG ARG ASP VAL LEU ALA SER ALA ALA ARG ILE ILE ALA          
  21 A  263  GLU GLY LEU                                                  
   1 B  263  GLN THR SER ALA VAL GLN GLN LYS LEU ALA ALA LEU GLU          
   2 B  263  LYS SER SER GLY GLY ARG LEU GLY VAL ALA LEU ILE ASP          
   3 B  263  THR ALA ASP ASN THR GLN VAL LEU TYR ARG GLY ASP GLU          
   4 B  263  ARG PHE PRO MET CYS SER THR SER LYS VAL MET ALA ALA          
   5 B  263  ALA ALA VAL LEU LYS GLN SER GLU THR GLN LYS GLN LEU          
   6 B  263  LEU ASN GLN PRO VAL GLU ILE LYS PRO ALA ASP LEU VAL          
   7 B  263  ASN TYR ASN PRO ILE ALA GLU LYS HIS VAL ASN GLY THR          
   8 B  263  MET THR LEU ALA GLU LEU SER ALA ALA ALA LEU GLN TYR          
   9 B  263  SER ASP ASN THR ALA MET ASN LYS LEU ILE ALA GLN LEU          
  10 B  263  GLY GLY PRO GLY GLY VAL THR ALA PHE ALA ARG ALA ILE          
  11 B  263  GLY ASP GLU THR PHE ARG LEU ASP ARG THR GLU PRO THR          
  12 B  263  LEU ASN THR ALA ILE PRO GLY ASP PRO ARG ASP THR THR          
  13 B  263  THR PRO ARG ALA MET ALA GLN THR LEU ARG GLN LEU THR          
  14 B  263  LEU GLY HIS ALA LEU GLY GLU THR GLN ARG ALA GLN LEU          
  15 B  263  VAL THR TRP LEU LYS GLY ASN THR THR GLY ALA ALA SER          
  16 B  263  ILE ARG ALA GLY LEU PRO THR SER TRP THR ALA GLY ASP          
  17 B  263  LYS THR GLY SER GLY ASP TYR GLY THR THR ASN ASP ILE          
  18 B  263  ALA VAL ILE TRP PRO GLN GLY ARG ALA PRO LEU VAL LEU          
  19 B  263  VAL THR TYR PHE THR GLN PRO GLN GLN ASN ALA GLU SER          
  20 B  263  ARG ARG ASP VAL LEU ALA SER ALA ALA ARG ILE ILE ALA          
  21 B  263  GLU GLY LEU                                                  

>  <HET>
 NBF  A1001      20                                                       
 NBF  B1002      20                                                       

>  <HETNAM>
     NBF [(2-ETHOXY-1-NAPHTHOYL)AMINO]METHYLBORONIC ACID                  

>  <FORMUL>
   3  NBF    2(C14 H16 B N O4)                                            
   5  HOH   *804(H2 O)                                                    

>  <HELIX>
   1   1 SER A   27  GLY A   41  1                                  15    
   2   2 CYS A   69  THR A   71  5                                   3    
   3   3 SER A   72  GLU A   85  1                                  14    
   4   4 GLN A   89  ASN A   92  5                                   4    
   5   5 LYS A   98  LEU A  102  5                                   5    
   6   6 ILE A  108  VAL A  113  5                                   6    
   7   7 LEU A  119  TYR A  129  1                                  11    
   8   8 ASP A  131  LEU A  142  1                                  12    
   9   9 GLY A  144  ILE A  155  1                                  12    
  10  10 PRO A  167  THR A  171  5                                   5    
  11  11 THR A  182  LEU A  195  1                                  14    
  12  12 GLY A  200  GLY A  213  1                                  14    
  13  13 SER A  220  LEU A  225  5                                   6    
  14  14 ARG A  275  GLY A  289  1                                  15    
  15  15 SER B   27  GLY B   41  1                                  15    
  16  16 CYS B   69  THR B   71  5                                   3    
  17  17 SER B   72  SER B   84  1                                  13    
  18  18 GLN B   89  ASN B   92  5                                   4    
  19  19 LYS B   98  LEU B  102  5                                   5    
  20  20 ILE B  108  VAL B  113  5                                   6    
  21  21 LEU B  119  SER B  130  1                                  12    
  22  22 ASP B  131  LEU B  142  1                                  12    
  23  23 GLY B  144  ILE B  155  1                                  12    
  24  24 PRO B  167  THR B  171  5                                   5    
  25  25 THR B  182  LEU B  195  1                                  14    
  26  26 GLY B  200  GLY B  213  1                                  14    
  27  27 SER B  220  LEU B  225  5                                   6    
  28  28 ARG B  275  GLU B  288  1                                  14    

>  <SHEET>
   1   A 5 GLN A  56  TYR A  60  0                                        
   2   A 5 ARG A  43  ASP A  50 -1  N  VAL A  46   O  TYR A  60           
   3   A 5 LEU A 259  THR A 266 -1  O  TYR A 264   N  GLY A  45           
   4   A 5 THR A 244  TRP A 251 -1  N  ILE A 250   O  LEU A 259           
   5   A 5 THR A 230  SER A 237 -1  N  GLY A 236   O  ASN A 245           
   1   B 2 PHE A  66  PRO A  67  0                                        
   2   B 2 THR A 180  THR A 181 -1  O  THR A 181   N  PHE A  66           
   1   C 2 PRO A  94  ILE A  97  0                                        
   2   C 2 GLY A 115  THR A 118 -1  O  GLY A 115   N  ILE A  97           
   1   D 5 GLN B  56  TYR B  60  0                                        
   2   D 5 ARG B  43  ASP B  50 -1  N  VAL B  46   O  TYR B  60           
   3   D 5 LEU B 259  THR B 266 -1  O  TYR B 264   N  GLY B  45           
   4   D 5 THR B 244  TRP B 251 -1  N  ALA B 248   O  LEU B 261           
   5   D 5 THR B 230  SER B 237 -1  N  THR B 230   O  TRP B 251           
   1   E 2 PHE B  66  PRO B  67  0                                        
   2   E 2 THR B 180  THR B 181 -1  O  THR B 181   N  PHE B  66           
   1   F 2 PRO B  94  ILE B  97  0                                        
   2   F 2 GLY B 115  THR B 118 -1  O  GLY B 115   N  ILE B  97           

>  <LINK>
       OG  SER A  70                 B   NBF A1001     1555   1555  1.62  
       OG  SER B  70                 B   NBF B1002     1555   1555  1.61  

>  <CISPEP>
   1 GLU A  166    PRO A  167          0         0.45                     
   2 GLU B  166    PRO B  167          0         0.72                     

>  <SITE>
   1 AC1 11 CYS A  69  SER A  70  ASN A 104  SER A 130                    
   2 AC1 11 ASN A 132  PRO A 167  ASN A 170  GLY A 236                    
   3 AC1 11 SER A 237  ASP A 240  HOH A2001                               
   1 AC2 11 CYS B  69  SER B  70  ASN B 104  SER B 130                    
   2 AC2 11 ASN B 132  PRO B 167  ASN B 170  GLY B 236                    
   3 AC2 11 SER B 237  ASP B 240  HOH B2002                               

>  <ORIGX1>
      1.000000  0.000000  0.000000        0.00000                         

>  <ORIGX2>
      0.000000  1.000000  0.000000        0.00000                         

>  <ORIGX3>
      0.000000  0.000000  1.000000        0.00000                         

>  <SCALE1>
      0.022095  0.000000  0.004592        0.00000                         

>  <SCALE2>
      0.000000  0.009361  0.000000        0.00000                         

>  <SCALE3>
      0.000000  0.000000  0.021338        0.00000                         

>  <MASTER>
      279    0    2   28   18    0    6    6 4793    2   42   42          

$$$$
