start_structures/Ligand_Substrate/Ligand_Complex_Stripped/NFF_3NCK.pdb
 OpenBabel08222315193D

 35 37  0  0  1  0  0  0  0  0999 V2000
  -14.6350  -11.1660    5.6370 N   0  0  0  0  0  0  0  0  0  0  0  0
  -14.0790  -10.8890    6.9500 C   0  0  2  0  0  0  0  0  0  0  0  0
  -14.9800  -10.0760    7.8610 C   0  0  0  0  0  0  0  0  0  0  0  0
  -14.7110   -9.9630    9.0510 O   0  0  0  0  0  0  0  0  0  0  0  0
  -12.7700  -10.1380    6.8060 C   0  0  0  0  0  0  0  0  0  0  0  0
  -11.6850  -10.8310    6.2080 O   0  0  0  0  0  0  0  0  0  0  0  0
  -11.3320  -11.7910    5.1760 C   0  0  1  0  0  0  0  0  0  0  0  0
   -9.8790  -12.3550    3.1310 N   0  0  0  0  0  0  0  0  0  0  0  0
  -12.0350  -11.2490    3.9870 O   0  0  0  0  0  0  0  0  0  0  0  0
   -9.8250  -11.9650    4.5890 C   0  0  1  0  0  0  0  0  0  0  0  0
   -9.0050  -10.7590    4.9560 C   0  0  2  0  0  0  0  0  0  0  0  0
  -10.4130  -17.9230    2.7080 C   0  0  0  0  0  0  0  0  0  0  0  0
   -7.7060   -8.0340    2.2260 C   0  0  0  0  0  0  0  0  0  0  0  0
   -7.3250   -7.7020    4.6910 C   0  0  0  0  0  0  0  0  0  0  0  0
  -10.6640   -7.0800    5.3410 O   0  0  0  0  0  0  0  0  0  0  0  0
   -8.4580  -14.1070    3.3860 O   0  0  0  0  0  0  0  0  0  0  0  0
  -10.5320   -6.5840    3.1890 O   0  0  0  0  0  0  0  0  0  0  0  0
   -7.9020  -11.3330   -1.8740 C   0  0  0  0  0  0  0  0  0  0  0  0
   -7.6490  -10.9950   -0.5370 C   0  0  0  0  0  0  0  0  0  0  0  0
  -10.4420  -15.1920   -0.4040 C   0  0  0  0  0  0  0  0  0  0  0  0
   -8.6630  -12.4660   -2.1640 C   0  0  0  0  0  0  0  0  0  0  0  0
   -8.1560  -11.7760    0.5020 C   0  0  0  0  0  0  0  0  0  0  0  0
   -9.9290  -14.3930   -1.4250 C   0  0  0  0  0  0  0  0  0  0  0  0
  -11.1620  -16.9480    1.7740 C   0  0  0  0  0  0  0  0  0  0  0  0
   -9.8470   -9.5380    5.0610 N   0  0  0  0  0  0  0  0  0  0  0  0
  -10.6930  -15.5980    2.0020 O   0  0  0  0  0  0  0  0  0  0  0  0
   -7.6490  -10.3070    3.8070 S   0  0  0  0  0  0  0  0  0  0  0  0
  -10.3190   -7.3200    4.1650 C   0  0  0  0  0  0  0  0  0  0  0  0
   -9.2030  -13.4010    2.6900 C   0  0  0  0  0  0  0  0  0  0  0  0
  -10.2030  -14.8560    0.9360 C   0  0  0  0  0  0  0  0  0  0  0  0
   -9.4400  -13.7150    1.2200 C   0  0  0  0  0  0  0  0  0  0  0  0
   -9.1750  -13.2550   -1.1280 C   0  0  0  0  0  0  0  0  0  0  0  0
   -8.9230  -12.9100    0.2050 C   0  0  0  0  0  0  0  0  0  0  0  0
   -9.6210   -8.6550    3.8820 C   0  0  1  0  0  0  0  0  0  0  0  0
   -8.0730   -8.5390    3.6340 C   0  0  0  0  0  0  0  0  0  0  0  0
  2  1  1  6  0  0  0
  2  3  1  0  0  0  0
  3  4  2  0  0  0  0
  5  2  1  0  0  0  0
  6  7  1  0  0  0  0
  6  5  1  0  0  0  0
  7  9  1  6  0  0  0
  7 10  1  0  0  0  0
  8 29  1  0  0  0  0
 10  8  1  6  0  0  0
 11 10  1  6  0  0  0
 11 25  1  0  0  0  0
 11 27  1  0  0  0  0
 12 24  1  0  0  0  0
 13 35  1  0  0  0  0
 14 35  1  0  0  0  0
 15 28  2  0  0  0  0
 16 29  2  0  0  0  0
 17 28  1  0  0  0  0
 18 19  2  0  0  0  0
 18 21  1  0  0  0  0
 19 22  1  0  0  0  0
 20 23  2  0  0  0  0
 20 30  1  0  0  0  0
 21 32  2  0  0  0  0
 22 33  2  0  0  0  0
 23 32  1  0  0  0  0
 24 26  1  0  0  0  0
 25 34  1  0  0  0  0
 26 30  1  0  0  0  0
 27 35  1  0  0  0  0
 29 31  1  0  0  0  0
 30 31  2  0  0  0  0
 31 33  1  0  0  0  0
 32 33  1  0  0  0  0
 34 28  1  1  0  0  0
 34 35  1  0  0  0  0
M  END
>  <HEADER>
    HYDROLASE/ANTIBIOTIC                    04-JUN-10   3NCK              

>  <TITLE>
    CRYSTAL STRUCTURE OF BLAC-E166A COVALENTLY BOUND WITH NAFCILLIN       

>  <COMPND>
    MOL_ID: 1;                                                            
   2 MOLECULE: BETA-LACTAMASE;                                            
   3 CHAIN: A;                                                            
   4 SYNONYM: PENICILLINASE;                                              
   5 EC: 3.5.2.6;                                                         
   6 ENGINEERED: YES;                                                     
   7 MUTATION: YES                                                        

>  <SOURCE>
    MOL_ID: 1;                                                            
   2 ORGANISM_SCIENTIFIC: MYCOBACTERIUM TUBERCULOSIS;                     
   3 ORGANISM_TAXID: 1773;                                                
   4 GENE: BLAA, BLAC, MT2128, MTCY49.07C, RV2068C;                       
   5 EXPRESSION_SYSTEM: ESCHERICHIA COLI;                                 
   6 EXPRESSION_SYSTEM_TAXID: 562;                                        
   7 EXPRESSION_SYSTEM_STRAIN: ROSETTA2;                                  
   8 EXPRESSION_SYSTEM_VECTOR: PLASMID;                                   
   9 EXPRESSION_SYSTEM_PLASMID: PET28A                                    

>  <KEYWDS>
    PENICILLIN BINDING PROTEIN, BETA-LACTAM COVALENT ADDUCT, HYDROLASE-   
   2 ANTIBIOTIC COMPLEX                                                   

>  <EXPDTA>
    X-RAY DIFFRACTION                                                     

>  <AUTHOR>
    L.W.TREMBLAY,J.S.BLANCHARD                                            

>  <REVDAT>
   6   03-APR-19 3NCK    1       REMARK LINK                              
   5   03-OCT-18 3NCK    1       REMARK                                   
   4   20-JUN-18 3NCK    1       HETSYN                                   
   3   08-NOV-17 3NCK    1       REMARK                                   
   2   28-MAR-12 3NCK    1       HEADER KEYWDS HETSYN                     
   1   14-DEC-11 3NCK    0                                                

>  <JRNL>
      AUTH   L.W.TREMBLAY,J.S.BLANCHARD                                   
      TITL   BLAC-E166A COVALENTLY BOUND WITH CEPHALOSPORINS AND          
      TITL 2 PENICILLINS                                                  
      REF    TO BE PUBLISHED                                              
      REFN                                                                

>  <REMARK>
   2                                                                      
   2 RESOLUTION.    2.80 ANGSTROMS.                                       
   3                                                                      
   3 REFINEMENT.                                                          
   3   PROGRAM     : REFMAC 5.5.0102                                      
   3   AUTHORS     : MURSHUDOV,SKUBAK,LEBEDEV,PANNU,STEINER,              
   3               : NICHOLLS,WINN,LONG,VAGIN                             
   3                                                                      
   3    REFINEMENT TARGET : MAXIMUM LIKELIHOOD                            
   3                                                                      
   3  DATA USED IN REFINEMENT.                                            
   3   RESOLUTION RANGE HIGH (ANGSTROMS) : 2.80                           
   3   RESOLUTION RANGE LOW  (ANGSTROMS) : 50.00                          
   3   DATA CUTOFF            (SIGMA(F)) : 0.000                          
   3   COMPLETENESS FOR RANGE        (%) : 99.4                           
   3   NUMBER OF REFLECTIONS             : 6599                           
   3                                                                      
   3  FIT TO DATA USED IN REFINEMENT.                                     
   3   CROSS-VALIDATION METHOD          : THROUGHOUT                      
   3   FREE R VALUE TEST SET SELECTION  : RANDOM                          
   3   R VALUE     (WORKING + TEST SET) : 0.188                           
   3   R VALUE            (WORKING SET) : 0.185                           
   3   FREE R VALUE                     : 0.265                           
   3   FREE R VALUE TEST SET SIZE   (%) : 4.700                           
   3   FREE R VALUE TEST SET COUNT      : 309                             
   3                                                                      
   3  FIT IN THE HIGHEST RESOLUTION BIN.                                  
   3   TOTAL NUMBER OF BINS USED           : 20                           
   3   BIN RESOLUTION RANGE HIGH       (A) : 2.80                         
   3   BIN RESOLUTION RANGE LOW        (A) : 2.87                         
   3   REFLECTION IN BIN     (WORKING SET) : 441                          
   3   BIN COMPLETENESS (WORKING+TEST) (%) : 93.89                        
   3   BIN R VALUE           (WORKING SET) : 0.2290                       
   3   BIN FREE R VALUE SET COUNT          : 20                           
   3   BIN FREE R VALUE                    : 0.3990                       
   3                                                                      
   3  NUMBER OF NON-HYDROGEN ATOMS USED IN REFINEMENT.                    
   3   PROTEIN ATOMS            : 1914                                    
   3   NUCLEIC ACID ATOMS       : 0                                       
   3   HETEROGEN ATOMS          : 29                                      
   3   SOLVENT ATOMS            : 29                                      
   3                                                                      
   3  B VALUES.                                                           
   3   FROM WILSON PLOT           (A**2) : NULL                           
   3   MEAN B VALUE      (OVERALL, A**2) : 34.81                          
   3   OVERALL ANISOTROPIC B VALUE.                                       
   3    B11 (A**2) : 1.16000                                              
   3    B22 (A**2) : -1.26000                                             
   3    B33 (A**2) : 0.10000                                              
   3    B12 (A**2) : 0.00000                                              
   3    B13 (A**2) : 0.00000                                              
   3    B23 (A**2) : 0.00000                                              
   3                                                                      
   3  ESTIMATED OVERALL COORDINATE ERROR.                                 
   3   ESU BASED ON R VALUE                            (A): NULL          
   3   ESU BASED ON FREE R VALUE                       (A): 0.424         
   3   ESU BASED ON MAXIMUM LIKELIHOOD                 (A): 0.314         
   3   ESU FOR B VALUES BASED ON MAXIMUM LIKELIHOOD (A**2): 15.766        
   3                                                                      
   3 CORRELATION COEFFICIENTS.                                            
   3   CORRELATION COEFFICIENT FO-FC      : 0.938                         
   3   CORRELATION COEFFICIENT FO-FC FREE : 0.872                         
   3                                                                      
   3  RMS DEVIATIONS FROM IDEAL VALUES        COUNT    RMS    WEIGHT      
   3   BOND LENGTHS REFINED ATOMS        (A):  1994 ; 0.012 ; 0.022       
   3   BOND LENGTHS OTHERS               (A):  NULL ;  NULL ;  NULL       
   3   BOND ANGLES REFINED ATOMS   (DEGREES):  2723 ; 1.391 ; 1.979       
   3   BOND ANGLES OTHERS          (DEGREES):  NULL ;  NULL ;  NULL       
   3   TORSION ANGLES, PERIOD 1    (DEGREES):   256 ; 6.200 ; 5.000       
   3   TORSION ANGLES, PERIOD 2    (DEGREES):    83 ;38.051 ;22.771       
   3   TORSION ANGLES, PERIOD 3    (DEGREES):   294 ;15.522 ;15.000       
   3   TORSION ANGLES, PERIOD 4    (DEGREES):    19 ;25.597 ;15.000       
   3   CHIRAL-CENTER RESTRAINTS       (A**3):   314 ; 0.083 ; 0.200       
   3   GENERAL PLANES REFINED ATOMS      (A):  1528 ; 0.005 ; 0.021       
   3   GENERAL PLANES OTHERS             (A):  NULL ;  NULL ;  NULL       
   3   NON-BONDED CONTACTS REFINED ATOMS (A):  NULL ;  NULL ;  NULL       
   3   NON-BONDED CONTACTS OTHERS        (A):  NULL ;  NULL ;  NULL       
   3   NON-BONDED TORSION REFINED ATOMS  (A):  NULL ;  NULL ;  NULL       
   3   NON-BONDED TORSION OTHERS         (A):  NULL ;  NULL ;  NULL       
   3   H-BOND (X...Y) REFINED ATOMS      (A):  NULL ;  NULL ;  NULL       
   3   H-BOND (X...Y) OTHERS             (A):  NULL ;  NULL ;  NULL       
   3   POTENTIAL METAL-ION REFINED ATOMS (A):  NULL ;  NULL ;  NULL       
   3   POTENTIAL METAL-ION OTHERS        (A):  NULL ;  NULL ;  NULL       
   3   SYMMETRY VDW REFINED ATOMS        (A):  NULL ;  NULL ;  NULL       
   3   SYMMETRY VDW OTHERS               (A):  NULL ;  NULL ;  NULL       
   3   SYMMETRY H-BOND REFINED ATOMS     (A):  NULL ;  NULL ;  NULL       
   3   SYMMETRY H-BOND OTHERS            (A):  NULL ;  NULL ;  NULL       
   3   SYMMETRY METAL-ION REFINED ATOMS  (A):  NULL ;  NULL ;  NULL       
   3   SYMMETRY METAL-ION OTHERS         (A):  NULL ;  NULL ;  NULL       
   3                                                                      
   3  ISOTROPIC THERMAL FACTOR RESTRAINTS.     COUNT   RMS    WEIGHT      
   3   MAIN-CHAIN BOND REFINED ATOMS  (A**2):  1279 ; 0.658 ; 1.500       
   3   MAIN-CHAIN BOND OTHER ATOMS    (A**2):  NULL ;  NULL ;  NULL       
   3   MAIN-CHAIN ANGLE REFINED ATOMS (A**2):  2044 ; 1.244 ; 2.000       
   3   MAIN-CHAIN ANGLE OTHER ATOMS   (A**2):  NULL ;  NULL ;  NULL       
   3   SIDE-CHAIN BOND REFINED ATOMS  (A**2):   715 ; 1.554 ; 3.000       
   3   SIDE-CHAIN BOND OTHER ATOMS    (A**2):  NULL ;  NULL ;  NULL       
   3   SIDE-CHAIN ANGLE REFINED ATOMS (A**2):   679 ; 2.760 ; 4.500       
   3   SIDE-CHAIN ANGLE OTHER ATOMS   (A**2):  NULL ;  NULL ;  NULL       
   3   LONG RANGE B REFINED ATOMS     (A**2):  NULL ;  NULL ;  NULL       
   3   LONG RANGE B OTHER ATOMS       (A**2):  NULL ;  NULL ;  NULL       
   3                                                                      
   3 ANISOTROPIC THERMAL FACTOR RESTRAINTS.    COUNT   RMS   WEIGHT       
   3   RIGID-BOND RESTRAINTS          (A**2):  NULL ;  NULL ;  NULL       
   3   SPHERICITY; FREE ATOMS         (A**2):  NULL ;  NULL ;  NULL       
   3   SPHERICITY; BONDED ATOMS       (A**2):  NULL ;  NULL ;  NULL       
   3                                                                      
   3  NCS RESTRAINTS STATISTICS                                           
   3   NUMBER OF DIFFERENT NCS GROUPS : NULL                              
   3                                                                      
   3  TLS DETAILS                                                         
   3   NUMBER OF TLS GROUPS  : NULL                                       
   3                                                                      
   3  BULK SOLVENT MODELLING.                                             
   3   METHOD USED : MASK                                                 
   3   PARAMETERS FOR MASK CALCULATION                                    
   3   VDW PROBE RADIUS   : 1.40                                          
   3   ION PROBE RADIUS   : 0.80                                          
   3   SHRINKAGE RADIUS   : 0.80                                          
   3                                                                      
   3  OTHER REFINEMENT REMARKS: HYDROGENS HAVE BEEN ADDED IN THE RIDING   
   3  POSITIONS. U VALUES REFINED INDIVIDUALLY                            
   4                                                                      
   4 3NCK COMPLIES WITH FORMAT V. 3.30, 13-JUL-11                         
 100                                                                      
 100 THIS ENTRY HAS BEEN PROCESSED BY RCSB ON 28-JUN-10.                  
 100 THE DEPOSITION ID IS D_1000059659.                                   
 200                                                                      
 200 EXPERIMENTAL DETAILS                                                 
 200  EXPERIMENT TYPE                : X-RAY DIFFRACTION                  
 200  DATE OF DATA COLLECTION        : 2009; 2009                         
 200  TEMPERATURE           (KELVIN) : 100; 100                           
 200  PH                             : 7.5                                
 200  NUMBER OF CRYSTALS USED        : 1                                  
 200                                                                      
 200  SYNCHROTRON              (Y/N) : Y; Y                               
 200  RADIATION SOURCE               : NSLS; NSLS                         
 200  BEAMLINE                       : X12C; X29A                         
 200  X-RAY GENERATOR MODEL          : NULL; NULL                         
 200  MONOCHROMATIC OR LAUE    (M/L) : NULL; NULL                         
 200  WAVELENGTH OR RANGE        (A) : 1.000; 1.000                       
 200  MONOCHROMATOR                  : SI(111) CHANNEL CUT; SI(111)       
 200                                   CHANNEL CUT                        
 200  OPTICS                         : NULL; NULL                         
 200                                                                      
 200  DETECTOR TYPE                  : CCD; CCD                           
 200  DETECTOR MANUFACTURER          : ADSC QUANTUM 210; ADSC QUANTUM     
 200                                   210                                
 200  INTENSITY-INTEGRATION SOFTWARE : HKL-2000                           
 200  DATA SCALING SOFTWARE          : HKL-2000                           
 200                                                                      
 200  NUMBER OF UNIQUE REFLECTIONS   : 6626                               
 200  RESOLUTION RANGE HIGH      (A) : 2.800                              
 200  RESOLUTION RANGE LOW       (A) : 50.790                             
 200  REJECTION CRITERIA  (SIGMA(I)) : 0.000                              
 200                                                                      
 200 OVERALL.                                                             
 200  COMPLETENESS FOR RANGE     (%) : 99.8                               
 200  DATA REDUNDANCY                : 5.900                              
 200  R MERGE                    (I) : 0.15200                            
 200  R SYM                      (I) : NULL                               
 200  <I/SIGMA(I)> FOR THE DATA SET  : 12.1000                            
 200                                                                      
 200 IN THE HIGHEST RESOLUTION SHELL.                                     
 200  HIGHEST RESOLUTION SHELL, RANGE HIGH (A) : 2.80                     
 200  HIGHEST RESOLUTION SHELL, RANGE LOW  (A) : 2.87                     
 200  COMPLETENESS FOR SHELL     (%) : 93.9                               
 200  DATA REDUNDANCY IN SHELL       : 5.90                               
 200  R MERGE FOR SHELL          (I) : 0.60600                            
 200  R SYM FOR SHELL            (I) : NULL                               
 200  <I/SIGMA(I)> FOR SHELL         : 1.900                              
 200                                                                      
 200 DIFFRACTION PROTOCOL: SINGLE WAVELENGTH; SINGLE WAVELENGTH           
 200 METHOD USED TO DETERMINE THE STRUCTURE: MOLECULAR REPLACEMENT        
 200 SOFTWARE USED: DIRECT                                                
 200 STARTING MODEL: PDB ENTRY 3DWZ                                       
 200                                                                      
 200 REMARK: NULL                                                         
 280                                                                      
 280 CRYSTAL                                                              
 280 SOLVENT CONTENT, VS   (%): 45.13                                     
 280 MATTHEWS COEFFICIENT, VM (ANGSTROMS**3/DA): 2.24                     
 280                                                                      
 280 CRYSTALLIZATION CONDITIONS: 0.1 M HEPES, 2 M NH4H2PO4, PH 7.5,       
 280  VAPOR DIFFUSION, SITTING DROP, TEMPERATURE 298K                     
 290                                                                      
 290 CRYSTALLOGRAPHIC SYMMETRY                                            
 290 SYMMETRY OPERATORS FOR SPACE GROUP: P 21 21 21                       
 290                                                                      
 290      SYMOP   SYMMETRY                                                
 290     NNNMMM   OPERATOR                                                
 290       1555   X,Y,Z                                                   
 290       2555   -X+1/2,-Y,Z+1/2                                         
 290       3555   -X,Y+1/2,-Z+1/2                                         
 290       4555   X+1/2,-Y+1/2,-Z                                         
 290                                                                      
 290     WHERE NNN -> OPERATOR NUMBER                                     
 290           MMM -> TRANSLATION VECTOR                                  
 290                                                                      
 290 CRYSTALLOGRAPHIC SYMMETRY TRANSFORMATIONS                            
 290 THE FOLLOWING TRANSFORMATIONS OPERATE ON THE ATOM/HETATM             
 290 RECORDS IN THIS ENTRY TO PRODUCE CRYSTALLOGRAPHICALLY                
 290 RELATED MOLECULES.                                                   
 290   SMTRY1   1  1.000000  0.000000  0.000000        0.00000            
 290   SMTRY2   1  0.000000  1.000000  0.000000        0.00000            
 290   SMTRY3   1  0.000000  0.000000  1.000000        0.00000            
 290   SMTRY1   2 -1.000000  0.000000  0.000000       24.33550            
 290   SMTRY2   2  0.000000 -1.000000  0.000000        0.00000            
 290   SMTRY3   2  0.000000  0.000000  1.000000       38.32150            
 290   SMTRY1   3 -1.000000  0.000000  0.000000        0.00000            
 290   SMTRY2   3  0.000000  1.000000  0.000000       33.91100            
 290   SMTRY3   3  0.000000  0.000000 -1.000000       38.32150            
 290   SMTRY1   4  1.000000  0.000000  0.000000       24.33550            
 290   SMTRY2   4  0.000000 -1.000000  0.000000       33.91100            
 290   SMTRY3   4  0.000000  0.000000 -1.000000        0.00000            
 290                                                                      
 290 REMARK: NULL                                                         
 300                                                                      
 300 BIOMOLECULE: 1                                                       
 300 SEE REMARK 350 FOR THE AUTHOR PROVIDED AND/OR PROGRAM                
 300 GENERATED ASSEMBLY INFORMATION FOR THE STRUCTURE IN                  
 300 THIS ENTRY. THE REMARK MAY ALSO PROVIDE INFORMATION ON               
 300 BURIED SURFACE AREA.                                                 
 350                                                                      
 350 COORDINATES FOR A COMPLETE MULTIMER REPRESENTING THE KNOWN           
 350 BIOLOGICALLY SIGNIFICANT OLIGOMERIZATION STATE OF THE                
 350 MOLECULE CAN BE GENERATED BY APPLYING BIOMT TRANSFORMATIONS          
 350 GIVEN BELOW.  BOTH NON-CRYSTALLOGRAPHIC AND                          
 350 CRYSTALLOGRAPHIC OPERATIONS ARE GIVEN.                               
 350                                                                      
 350 BIOMOLECULE: 1                                                       
 350 AUTHOR DETERMINED BIOLOGICAL UNIT: MONOMERIC                         
 350 SOFTWARE DETERMINED QUATERNARY STRUCTURE: MONOMERIC                  
 350 SOFTWARE USED: PISA                                                  
 350 APPLY THE FOLLOWING TO CHAINS: A                                     
 350   BIOMT1   1  1.000000  0.000000  0.000000        0.00000            
 350   BIOMT2   1  0.000000  1.000000  0.000000        0.00000            
 350   BIOMT3   1  0.000000  0.000000  1.000000        0.00000            
 465                                                                      
 465 MISSING RESIDUES                                                     
 465 THE FOLLOWING RESIDUES WERE NOT LOCATED IN THE                       
 465 EXPERIMENT. (M=MODEL NUMBER; RES=RESIDUE NAME; C=CHAIN               
 465 IDENTIFIER; SSSEQ=SEQUENCE NUMBER; I=INSERTION CODE.)                
 465                                                                      
 465   M RES C SSSEQI                                                     
 465     ALA A   180                                                      
 465     GLU A   181                                                      
 465     ALA A   182                                                      
 465     PRO A   183                                                      
 465     GLU A   184                                                      
 465     LEU A   185                                                      
 465     ASN A   186                                                      
 465     ARG A   187                                                      
 465     ASP A   188                                                      
 500                                                                      
 500 GEOMETRY AND STEREOCHEMISTRY                                         
 500 SUBTOPIC: TORSION ANGLES                                             
 500                                                                      
 500 TORSION ANGLES OUTSIDE THE EXPECTED RAMACHANDRAN REGIONS:            
 500 (M=MODEL NUMBER; RES=RESIDUE NAME; C=CHAIN IDENTIFIER;               
 500 SSEQ=SEQUENCE NUMBER; I=INSERTION CODE).                             
 500                                                                      
 500 STANDARD TABLE:                                                      
 500 FORMAT:(10X,I3,1X,A3,1X,A1,I4,A1,4X,F7.2,3X,F7.2)                    
 500                                                                      
 500 EXPECTED VALUES: GJ KLEYWEGT AND TA JONES (1996). PHI/PSI-           
 500 CHOLOGY: RAMACHANDRAN REVISITED. STRUCTURE 4, 1395 - 1400            
 500                                                                      
 500  M RES CSSEQI        PSI       PHI                                   
 500    THR A  66     -165.10   -127.69                                   
 500    ALA A  81      159.08    -47.26                                   
 500    CYS A  83     -141.31     73.26                                   
 500    THR A 110     -166.87   -113.17                                   
 500    GLN A 123       35.09    -84.77                                   
 500    HIS A 124      -29.25   -145.90                                   
 500    VAL A 125      -30.88    -34.16                                   
 500    ASP A 192      137.34    -37.51                                   
 500    ARG A 236     -131.40   -125.66                                   
 500                                                                      
 500 REMARK: NULL                                                         
 800                                                                      
 800 SITE                                                                 
 800 SITE_IDENTIFIER: AC1                                                 
 800 EVIDENCE_CODE: SOFTWARE                                              
 800 SITE_DESCRIPTION: BINDING SITE FOR RESIDUE NFF A 1                   

>  <DBREF>
 3NCK A   43   307  UNP    P0C5C1   BLAC_MYCTU      43    307             

>  <SEQADV>
 3NCK ALA A  182  UNP  P0C5C1    GLU   182 ENGINEERED MUTATION            

>  <SEQRES>
   1 A  265  ASP LEU ALA ASP ARG PHE ALA GLU LEU GLU ARG ARG TYR          
   2 A  265  ASP ALA ARG LEU GLY VAL TYR VAL PRO ALA THR GLY THR          
   3 A  265  THR ALA ALA ILE GLU TYR ARG ALA ASP GLU ARG PHE ALA          
   4 A  265  PHE CYS SER THR PHE LYS ALA PRO LEU VAL ALA ALA VAL          
   5 A  265  LEU HIS GLN ASN PRO LEU THR HIS LEU ASP LYS LEU ILE          
   6 A  265  THR TYR THR SER ASP ASP ILE ARG SER ILE SER PRO VAL          
   7 A  265  ALA GLN GLN HIS VAL GLN THR GLY MET THR ILE GLY GLN          
   8 A  265  LEU CYS ASP ALA ALA ILE ARG TYR SER ASP GLY THR ALA          
   9 A  265  ALA ASN LEU LEU LEU ALA ASP LEU GLY GLY PRO GLY GLY          
  10 A  265  GLY THR ALA ALA PHE THR GLY TYR LEU ARG SER LEU GLY          
  11 A  265  ASP THR VAL SER ARG LEU ASP ALA GLU ALA PRO GLU LEU          
  12 A  265  ASN ARG ASP PRO PRO GLY ASP GLU ARG ASP THR THR THR          
  13 A  265  PRO HIS ALA ILE ALA LEU VAL LEU GLN GLN LEU VAL LEU          
  14 A  265  GLY ASN ALA LEU PRO PRO ASP LYS ARG ALA LEU LEU THR          
  15 A  265  ASP TRP MET ALA ARG ASN THR THR GLY ALA LYS ARG ILE          
  16 A  265  ARG ALA GLY PHE PRO ALA ASP TRP LYS VAL ILE ASP LYS          
  17 A  265  THR GLY THR GLY ASP TYR GLY ARG ALA ASN ASP ILE ALA          
  18 A  265  VAL VAL TRP SER PRO THR GLY VAL PRO TYR VAL VAL ALA          
  19 A  265  VAL MET SER ASP ARG ALA GLY GLY GLY TYR ASP ALA GLU          
  20 A  265  PRO ARG GLU ALA LEU LEU ALA GLU ALA ALA THR CYS VAL          
  21 A  265  ALA GLY VAL LEU ALA                                          

>  <HET>
 NFF  A   1      29                                                       

>  <HETNAM>
     NFF (2R,4S)-2-[(1R)-1-{[(2-ETHOXYNAPHTHALEN-1-YL)                    
   2 NFF  CARBONYL]AMINO}-2-OXOETHYL]-5,5-DIMETHYL-1,3-                   
   3 NFF  THIAZOLIDINE-4-CARBOXYLIC ACID                                  

>  <HETSYN>
     NFF NAFCILLIN, BOUND FORM                                            

>  <FORMUL>
   2  NFF    C21 H24 N2 O5 S                                              
   3  HOH   *29(H2 O)                                                     

>  <HELIX>
   1   1 ASP A   43  ASP A   56  1                                  14    
   2   2 CYS A   83  THR A   85  5                                   3    
   3   3 PHE A   86  ASN A   98  1                                  13    
   4   4 PRO A   99  ASP A  104  5                                   6    
   5   5 THR A  110  ILE A  114  5                                   5    
   6   6 SER A  118  GLN A  123  1                                   6    
   7   7 ILE A  131  SER A  142  1                                  12    
   8   8 ASP A  143  GLY A  155  1                                  13    
   9   9 PRO A  157  GLY A  159  5                                   3    
  10  10 GLY A  160  LEU A  171  1                                  12    
  11  11 THR A  198  LEU A  211  1                                  14    
  12  12 PRO A  216  ARG A  229  1                                  14    
  13  13 ARG A  236  PHE A  241  5                                   6    
  14  14 ARG A  281  GLY A  285  5                                   5    
  15  15 ARG A  291  ALA A  307  1                                  17    

>  <SHEET>
   1   A 5 ILE A  72  TYR A  74  0                                        
   2   A 5 ARG A  58  VAL A  63 -1  N  VAL A  61   O  TYR A  74           
   3   A 5 PRO A 272  ASP A 280 -1  O  ASP A 280   N  ARG A  58           
   4   A 5 ALA A 259  TRP A 266 -1  N  VAL A 265   O  TYR A 273           
   5   A 5 LYS A 246  THR A 253 -1  N  GLY A 252   O  ASN A 260           
   1   B 2 PHE A  80  ALA A  81  0                                        
   2   B 2 THR A 196  THR A 197 -1  O  THR A 197   N  PHE A  80           
   1   C 2 LEU A 106  ILE A 107  0                                        
   2   C 2 MET A 129  THR A 130 -1  O  MET A 129   N  ILE A 107           

>  <LINK>
       OG  SER A  84                 C   NFF A   1     1555   1555  1.45  

>  <SITE>
   1 AC1 10 SER A  84  LYS A  87  SER A 142  GLU A 193                    
   2 AC1 10 LYS A 250  THR A 251  GLY A 252  THR A 253                    
   3 AC1 10 GLY A 254  ASP A 255                                          

>  <ORIGX1>
      1.000000  0.000000  0.000000        0.00000                         

>  <ORIGX2>
      0.000000  1.000000  0.000000        0.00000                         

>  <ORIGX3>
      0.000000  0.000000  1.000000        0.00000                         

>  <SCALE1>
      0.020546  0.000000  0.000000        0.00000                         

>  <SCALE2>
      0.000000  0.014744  0.000000        0.00000                         

>  <SCALE3>
      0.000000  0.000000  0.013048        0.00000                         

>  <MASTER>
      285    0    1   15    9    0    3    6 1972    1   30   21          

$$$$
