start_structures/Ligand_Substrate/Ligand_Complex_Stripped/NPB_3RXX.pdb
 OpenBabel08222315203D

 18 18  0  0  1  0  0  0  0  0999 V2000
   -6.1490    4.7610   -7.5430 N   0  0  0  0  0  0  0  0  0  0  0  0
   -5.4600    3.4640   -7.6710 C   0  0  2  0  0  0  0  0  0  0  0  0
   -4.9820    3.1490   -9.0760 C   0  0  0  0  0  0  0  0  0  0  0  0
   -4.2410    2.1780   -9.2630 O   0  0  0  0  0  0  0  0  0  0  0  0
   -6.3410    2.3150   -7.1810 C   0  0  0  0  0  0  0  0  0  0  0  0
   -6.3170    2.2370   -5.7690 O   0  0  0  0  0  0  0  0  0  0  0  0
   -7.0880    3.3490   -4.9250 B   0  0  0  0  0  0  0  0  0  0  0  0
   -5.9400    4.2320   -4.4830 O   0  0  0  0  0  0  0  0  0  0  0  0
   -8.2240    3.8770   -5.7630 O   0  0  0  0  0  0  0  0  0  0  0  0
   -7.7630    2.5740   -3.6910 C   0  0  0  0  0  0  0  0  0  0  0  0
   -8.3850    1.3550   -3.9420 C   0  0  0  0  0  0  0  0  0  0  0  0
   -8.9910    0.6220   -2.9210 C   0  0  0  0  0  0  0  0  0  0  0  0
   -9.6540   -0.7070   -3.2550 N   0  0  0  0  0  0  0  0  0  0  0  0
  -10.0300   -1.4610   -2.3640 O   0  0  0  0  0  0  0  0  0  0  0  0
   -9.7960   -1.0290   -4.4180 O   0  0  0  0  0  0  0  0  0  0  0  0
   -8.9770    1.1230   -1.6170 C   0  0  0  0  0  0  0  0  0  0  0  0
   -8.3610    2.3410   -1.3460 C   0  0  0  0  0  0  0  0  0  0  0  0
   -7.7440    3.0660   -2.3820 C   0  0  0  0  0  0  0  0  0  0  0  0
  2  1  1  6  0  0  0
  2  5  1  0  0  0  0
  3  2  1  0  0  0  0
  4  3  2  0  0  0  0
  5  6  1  0  0  0  0
  6  7  1  0  0  0  0
  7  8  1  0  0  0  0
  7  9  1  0  0  0  0
  7 10  1  0  0  0  0
 10 11  2  0  0  0  0
 10 18  1  0  0  0  0
 11 12  1  0  0  0  0
 12 13  1  0  0  0  0
 12 16  2  0  0  0  0
 13 14  2  0  0  0  0
 13 15  2  0  0  0  0
 16 17  1  0  0  0  0
 17 18  2  0  0  0  0
M  END
>  <HEADER>
    HYDROLASE/HYDROLASE INHIBITOR           10-MAY-11   3RXX              

>  <TITLE>
    KPC-2 CARBAPENEMASE IN COMPLEX WITH 3-NPBA                            

>  <COMPND>
    MOL_ID: 1;                                                            
   2 MOLECULE: CARBEPENEM-HYDROLYZING BETA-LACTAMASE KPC;                 
   3 CHAIN: A;                                                            
   4 FRAGMENT: UNP RESIDUES 26-289;                                       
   5 SYNONYM: KPC-1, KPC-2;                                               
   6 EC: 3.5.2.6;                                                         
   7 ENGINEERED: YES                                                      

>  <SOURCE>
    MOL_ID: 1;                                                            
   2 ORGANISM_SCIENTIFIC: KLEBSIELLA PNEUMONIAE;                          
   3 ORGANISM_TAXID: 573;                                                 
   4 GENE: BLA, BLAKPC-2, KPC, KPC1;                                      
   5 EXPRESSION_SYSTEM: ESCHERICHIA COLI;                                 
   6 EXPRESSION_SYSTEM_TAXID: 511693;                                     
   7 EXPRESSION_SYSTEM_STRAIN: BL21;                                      
   8 EXPRESSION_SYSTEM_VECTOR_TYPE: PLASMID;                              
   9 EXPRESSION_SYSTEM_PLASMID: PET30A                                    

>  <KEYWDS>
    INHIBITOR, BETA-LACTAMASE, HYDROLASE-HYDROLASE INHIBITOR COMPLEX      

>  <EXPDTA>
    X-RAY DIFFRACTION                                                     

>  <AUTHOR>
    W.KE,F.VAN DEN AKKER                                                  

>  <REVDAT>
   2   19-JUN-13 3RXX    1       JRNL                                     
   1   21-MAR-12 3RXX    0                                                

>  <JRNL>
      AUTH   W.KE,C.R.BETHEL,K.M.PAPP-WALLACE,S.R.PAGADALA,M.NOTTINGHAM,  
      AUTH 2 D.FERNANDEZ,J.D.BUYNAK,R.A.BONOMO,F.VAN DEN AKKER            
      TITL   CRYSTAL STRUCTURES OF KPC-2 {BETA}-LACTAMASE IN COMPLEX WITH 
      TITL 2 3-NITROPHENYL BORONIC ACID AND THE PENAM SULFONE PSR-3-226.  
      REF    ANTIMICROB.AGENTS CHEMOTHER.  V.  56  2713 2012              
      REFN                   ISSN 0066-4804                               
      PMID   22330909                                                     
      DOI    10.1128/AAC.06099-11                                         

>  <REMARK>
   2                                                                      
   2 RESOLUTION.    1.62 ANGSTROMS.                                       
   3                                                                      
   3 REFINEMENT.                                                          
   3   PROGRAM     : REFMAC 5.2.0019                                      
   3   AUTHORS     : MURSHUDOV,VAGIN,DODSON                               
   3                                                                      
   3    REFINEMENT TARGET : MAXIMUM LIKELIHOOD                            
   3                                                                      
   3  DATA USED IN REFINEMENT.                                            
   3   RESOLUTION RANGE HIGH (ANGSTROMS) : 1.62                           
   3   RESOLUTION RANGE LOW  (ANGSTROMS) : 27.77                          
   3   DATA CUTOFF            (SIGMA(F)) : NULL                           
   3   COMPLETENESS FOR RANGE        (%) : 87.2                           
   3   NUMBER OF REFLECTIONS             : 28074                          
   3                                                                      
   3  FIT TO DATA USED IN REFINEMENT.                                     
   3   CROSS-VALIDATION METHOD          : THROUGHOUT                      
   3   FREE R VALUE TEST SET SELECTION  : RANDOM                          
   3   R VALUE     (WORKING + TEST SET) : 0.162                           
   3   R VALUE            (WORKING SET) : 0.160                           
   3   FREE R VALUE                     : 0.192                           
   3   FREE R VALUE TEST SET SIZE   (%) : 5.100                           
   3   FREE R VALUE TEST SET COUNT      : 1496                            
   3                                                                      
   3  FIT IN THE HIGHEST RESOLUTION BIN.                                  
   3   TOTAL NUMBER OF BINS USED           : 20                           
   3   BIN RESOLUTION RANGE HIGH       (A) : 1.62                         
   3   BIN RESOLUTION RANGE LOW        (A) : 1.66                         
   3   REFLECTION IN BIN     (WORKING SET) : 1652                         
   3   BIN COMPLETENESS (WORKING+TEST) (%) : 74.71                        
   3   BIN R VALUE           (WORKING SET) : 0.2580                       
   3   BIN FREE R VALUE SET COUNT          : 91                           
   3   BIN FREE R VALUE                    : 0.2920                       
   3                                                                      
   3  NUMBER OF NON-HYDROGEN ATOMS USED IN REFINEMENT.                    
   3   PROTEIN ATOMS            : 1964                                    
   3   NUCLEIC ACID ATOMS       : 0                                       
   3   HETEROGEN ATOMS          : 12                                      
   3   SOLVENT ATOMS            : 246                                     
   3                                                                      
   3  B VALUES.                                                           
   3   FROM WILSON PLOT           (A**2) : 17.18                          
   3   MEAN B VALUE      (OVERALL, A**2) : 16.78                          
   3   OVERALL ANISOTROPIC B VALUE.                                       
   3    B11 (A**2) : 0.01000                                              
   3    B22 (A**2) : 0.00000                                              
   3    B33 (A**2) : 0.00000                                              
   3    B12 (A**2) : 0.00000                                              
   3    B13 (A**2) : 0.00000                                              
   3    B23 (A**2) : 0.00000                                              
   3                                                                      
   3  ESTIMATED OVERALL COORDINATE ERROR.                                 
   3   ESU BASED ON R VALUE                            (A): 0.094         
   3   ESU BASED ON FREE R VALUE                       (A): 0.093         
   3   ESU BASED ON MAXIMUM LIKELIHOOD                 (A): 0.053         
   3   ESU FOR B VALUES BASED ON MAXIMUM LIKELIHOOD (A**2): 1.482         
   3                                                                      
   3 CORRELATION COEFFICIENTS.                                            
   3   CORRELATION COEFFICIENT FO-FC      : 0.966                         
   3   CORRELATION COEFFICIENT FO-FC FREE : 0.952                         
   3                                                                      
   3  RMS DEVIATIONS FROM IDEAL VALUES        COUNT    RMS    WEIGHT      
   3   BOND LENGTHS REFINED ATOMS        (A):  2072 ; 0.010 ; 0.022       
   3   BOND LENGTHS OTHERS               (A):  NULL ;  NULL ;  NULL       
   3   BOND ANGLES REFINED ATOMS   (DEGREES):  2832 ; 1.226 ; 1.966       
   3   BOND ANGLES OTHERS          (DEGREES):  NULL ;  NULL ;  NULL       
   3   TORSION ANGLES, PERIOD 1    (DEGREES):   278 ; 5.602 ; 5.000       
   3   TORSION ANGLES, PERIOD 2    (DEGREES):    87 ;32.116 ;23.448       
   3   TORSION ANGLES, PERIOD 3    (DEGREES):   323 ;12.091 ;15.000       
   3   TORSION ANGLES, PERIOD 4    (DEGREES):    17 ;14.514 ;15.000       
   3   CHIRAL-CENTER RESTRAINTS       (A**3):   319 ; 0.077 ; 0.200       
   3   GENERAL PLANES REFINED ATOMS      (A):  1603 ; 0.005 ; 0.020       
   3   GENERAL PLANES OTHERS             (A):  NULL ;  NULL ;  NULL       
   3   NON-BONDED CONTACTS REFINED ATOMS (A):   985 ; 0.200 ; 0.200       
   3   NON-BONDED CONTACTS OTHERS        (A):  NULL ;  NULL ;  NULL       
   3   NON-BONDED TORSION REFINED ATOMS  (A):  1443 ; 0.302 ; 0.200       
   3   NON-BONDED TORSION OTHERS         (A):  NULL ;  NULL ;  NULL       
   3   H-BOND (X...Y) REFINED ATOMS      (A):   165 ; 0.113 ; 0.200       
   3   H-BOND (X...Y) OTHERS             (A):  NULL ;  NULL ;  NULL       
   3   POTENTIAL METAL-ION REFINED ATOMS (A):  NULL ;  NULL ;  NULL       
   3   POTENTIAL METAL-ION OTHERS        (A):  NULL ;  NULL ;  NULL       
   3   SYMMETRY VDW REFINED ATOMS        (A):    47 ; 0.171 ; 0.200       
   3   SYMMETRY VDW OTHERS               (A):  NULL ;  NULL ;  NULL       
   3   SYMMETRY H-BOND REFINED ATOMS     (A):    17 ; 0.371 ; 0.200       
   3   SYMMETRY H-BOND OTHERS            (A):  NULL ;  NULL ;  NULL       
   3   SYMMETRY METAL-ION REFINED ATOMS  (A):  NULL ;  NULL ;  NULL       
   3   SYMMETRY METAL-ION OTHERS         (A):  NULL ;  NULL ;  NULL       
   3                                                                      
   3  ISOTROPIC THERMAL FACTOR RESTRAINTS.     COUNT   RMS    WEIGHT      
   3   MAIN-CHAIN BOND REFINED ATOMS  (A**2):  1356 ; 2.264 ; 2.000       
   3   MAIN-CHAIN BOND OTHER ATOMS    (A**2):  NULL ;  NULL ;  NULL       
   3   MAIN-CHAIN ANGLE REFINED ATOMS (A**2):  2122 ; 2.918 ; 3.000       
   3   SIDE-CHAIN BOND REFINED ATOMS  (A**2):   816 ; 3.248 ; 2.000       
   3   SIDE-CHAIN ANGLE REFINED ATOMS (A**2):   702 ; 4.491 ; 3.000       
   3                                                                      
   3 ANISOTROPIC THERMAL FACTOR RESTRAINTS.    COUNT   RMS   WEIGHT       
   3   RIGID-BOND RESTRAINTS          (A**2):  NULL ;  NULL ;  NULL       
   3   SPHERICITY; FREE ATOMS         (A**2):  NULL ;  NULL ;  NULL       
   3   SPHERICITY; BONDED ATOMS       (A**2):  NULL ;  NULL ;  NULL       
   3                                                                      
   3  NCS RESTRAINTS STATISTICS                                           
   3   NUMBER OF DIFFERENT NCS GROUPS : NULL                              
   3                                                                      
   3  TLS DETAILS                                                         
   3   NUMBER OF TLS GROUPS  : NULL                                       
   3                                                                      
   3  BULK SOLVENT MODELLING.                                             
   3   METHOD USED : MASK                                                 
   3   PARAMETERS FOR MASK CALCULATION                                    
   3   VDW PROBE RADIUS   : 1.40                                          
   3   ION PROBE RADIUS   : 0.80                                          
   3   SHRINKAGE RADIUS   : 0.80                                          
   3                                                                      
   3  OTHER REFINEMENT REMARKS: HYDROGENS HAVE BEEN ADDED IN THE RIDING   
   3  POSITIONS                                                           
   4                                                                      
   4 3RXX COMPLIES WITH FORMAT V. 3.30, 13-JUL-11                         
 100                                                                      
 100 THIS ENTRY HAS BEEN PROCESSED BY RCSB ON 13-MAY-11.                  
 100 THE RCSB ID CODE IS RCSB065513.                                      
 200                                                                      
 200 EXPERIMENTAL DETAILS                                                 
 200  EXPERIMENT TYPE                : X-RAY DIFFRACTION                  
 200  DATE OF DATA COLLECTION        : 16-JUL-09                          
 200  TEMPERATURE           (KELVIN) : 100                                
 200  PH                             : 4.0                                
 200  NUMBER OF CRYSTALS USED        : 1                                  
 200                                                                      
 200  SYNCHROTRON              (Y/N) : Y                                  
 200  RADIATION SOURCE               : SSRL                               
 200  BEAMLINE                       : BL11-1                             
 200  X-RAY GENERATOR MODEL          : NULL                               
 200  MONOCHROMATIC OR LAUE    (M/L) : M                                  
 200  WAVELENGTH OR RANGE        (A) : 0.97945                            
 200  MONOCHROMATOR                  : SIDE SCATTERING BENT CUBE-ROOT I   
 200                                   -BEAM SINGLE CRYSTAL; ASYMMETRIC   
 200                                   CUT 4.965 DEGS                     
 200  OPTICS                         : MIRRORS                            
 200                                                                      
 200  DETECTOR TYPE                  : CCD                                
 200  DETECTOR MANUFACTURER          : MARMOSAIC 325 MM CCD               
 200  INTENSITY-INTEGRATION SOFTWARE : HKL-2000                           
 200  DATA SCALING SOFTWARE          : HKL-2000                           
 200                                                                      
 200  NUMBER OF UNIQUE REFLECTIONS   : 29570                              
 200  RESOLUTION RANGE HIGH      (A) : 1.620                              
 200  RESOLUTION RANGE LOW       (A) : 50.000                             
 200  REJECTION CRITERIA  (SIGMA(I)) : 1.000                              
 200                                                                      
 200 OVERALL.                                                             
 200  COMPLETENESS FOR RANGE     (%) : 91.9                               
 200  DATA REDUNDANCY                : 4.400                              
 200  R MERGE                    (I) : 0.05900                            
 200  R SYM                      (I) : NULL                               
 200  <I/SIGMA(I)> FOR THE DATA SET  : 21.3000                            
 200                                                                      
 200 IN THE HIGHEST RESOLUTION SHELL.                                     
 200  HIGHEST RESOLUTION SHELL, RANGE HIGH (A) : 1.62                     
 200  HIGHEST RESOLUTION SHELL, RANGE LOW  (A) : 1.68                     
 200  COMPLETENESS FOR SHELL     (%) : 75.7                               
 200  DATA REDUNDANCY IN SHELL       : 4.40                               
 200  R MERGE FOR SHELL          (I) : 0.36100                            
 200  R SYM FOR SHELL            (I) : NULL                               
 200  <I/SIGMA(I)> FOR SHELL         : 3.250                              
 200                                                                      
 200 DIFFRACTION PROTOCOL: SINGLE WAVELENGTH                              
 200 METHOD USED TO DETERMINE THE STRUCTURE: MOLECULAR REPLACEMENT        
 200 SOFTWARE USED: NULL                                                  
 200 STARTING MODEL: PDB ENTRY 3C5A                                       
 200                                                                      
 200 REMARK: NULL                                                         
 280                                                                      
 280 CRYSTAL                                                              
 280 SOLVENT CONTENT, VS   (%): 44.16                                     
 280 MATTHEWS COEFFICIENT, VM (ANGSTROMS**3/DA): 2.20                     
 280                                                                      
 280 CRYSTALLIZATION CONDITIONS: 20% PEG6000, 100 MM POTASSIUM            
 280  THIOCYANATE, 100 MM CITRATE, PH 4.0, VAPOR DIFFUSION, SITTING       
 280  DROP, TEMPERATURE 293.0K                                            
 290                                                                      
 290 CRYSTALLOGRAPHIC SYMMETRY                                            
 290 SYMMETRY OPERATORS FOR SPACE GROUP: P 21 21 21                       
 290                                                                      
 290      SYMOP   SYMMETRY                                                
 290     NNNMMM   OPERATOR                                                
 290       1555   X,Y,Z                                                   
 290       2555   -X+1/2,-Y,Z+1/2                                         
 290       3555   -X,Y+1/2,-Z+1/2                                         
 290       4555   X+1/2,-Y+1/2,-Z                                         
 290                                                                      
 290     WHERE NNN -> OPERATOR NUMBER                                     
 290           MMM -> TRANSLATION VECTOR                                  
 290                                                                      
 290 CRYSTALLOGRAPHIC SYMMETRY TRANSFORMATIONS                            
 290 THE FOLLOWING TRANSFORMATIONS OPERATE ON THE ATOM/HETATM             
 290 RECORDS IN THIS ENTRY TO PRODUCE CRYSTALLOGRAPHICALLY                
 290 RELATED MOLECULES.                                                   
 290   SMTRY1   1  1.000000  0.000000  0.000000        0.00000            
 290   SMTRY2   1  0.000000  1.000000  0.000000        0.00000            
 290   SMTRY3   1  0.000000  0.000000  1.000000        0.00000            
 290   SMTRY1   2 -1.000000  0.000000  0.000000       25.17400            
 290   SMTRY2   2  0.000000 -1.000000  0.000000        0.00000            
 290   SMTRY3   2  0.000000  0.000000  1.000000       36.79900            
 290   SMTRY1   3 -1.000000  0.000000  0.000000        0.00000            
 290   SMTRY2   3  0.000000  1.000000  0.000000       33.27900            
 290   SMTRY3   3  0.000000  0.000000 -1.000000       36.79900            
 290   SMTRY1   4  1.000000  0.000000  0.000000       25.17400            
 290   SMTRY2   4  0.000000 -1.000000  0.000000       33.27900            
 290   SMTRY3   4  0.000000  0.000000 -1.000000        0.00000            
 290                                                                      
 290 REMARK: NULL                                                         
 300                                                                      
 300 BIOMOLECULE: 1                                                       
 300 SEE REMARK 350 FOR THE AUTHOR PROVIDED AND/OR PROGRAM                
 300 GENERATED ASSEMBLY INFORMATION FOR THE STRUCTURE IN                  
 300 THIS ENTRY. THE REMARK MAY ALSO PROVIDE INFORMATION ON               
 300 BURIED SURFACE AREA.                                                 
 350                                                                      
 350 COORDINATES FOR A COMPLETE MULTIMER REPRESENTING THE KNOWN           
 350 BIOLOGICALLY SIGNIFICANT OLIGOMERIZATION STATE OF THE                
 350 MOLECULE CAN BE GENERATED BY APPLYING BIOMT TRANSFORMATIONS          
 350 GIVEN BELOW.  BOTH NON-CRYSTALLOGRAPHIC AND                          
 350 CRYSTALLOGRAPHIC OPERATIONS ARE GIVEN.                               
 350                                                                      
 350 BIOMOLECULE: 1                                                       
 350 AUTHOR DETERMINED BIOLOGICAL UNIT: MONOMERIC                         
 350 SOFTWARE DETERMINED QUATERNARY STRUCTURE: MONOMERIC                  
 350 SOFTWARE USED: PISA                                                  
 350 APPLY THE FOLLOWING TO CHAINS: A                                     
 350   BIOMT1   1  1.000000  0.000000  0.000000        0.00000            
 350   BIOMT2   1  0.000000  1.000000  0.000000        0.00000            
 350   BIOMT3   1  0.000000  0.000000  1.000000        0.00000            
 465                                                                      
 465 MISSING RESIDUES                                                     
 465 THE FOLLOWING RESIDUES WERE NOT LOCATED IN THE                       
 465 EXPERIMENT. (M=MODEL NUMBER; RES=RESIDUE NAME; C=CHAIN               
 465 IDENTIFIER; SSSEQ=SEQUENCE NUMBER; I=INSERTION CODE.)                
 465                                                                      
 465   M RES C SSSEQI                                                     
 465     THR A    26                                                      
 500                                                                      
 500 GEOMETRY AND STEREOCHEMISTRY                                         
 500 SUBTOPIC: CLOSE CONTACTS                                             
 500                                                                      
 500 THE FOLLOWING ATOMS THAT ARE RELATED BY CRYSTALLOGRAPHIC             
 500 SYMMETRY ARE IN CLOSE CONTACT.  AN ATOM LOCATED WITHIN 0.15          
 500 ANGSTROMS OF A SYMMETRY RELATED ATOM IS ASSUMED TO BE ON A           
 500 SPECIAL POSITION AND IS, THEREFORE, LISTED IN REMARK 375             
 500 INSTEAD OF REMARK 500.  ATOMS WITH NON-BLANK ALTERNATE               
 500 LOCATION INDICATORS ARE NOT INCLUDED IN THE CALCULATIONS.            
 500                                                                      
 500 DISTANCE CUTOFF:                                                     
 500 2.2 ANGSTROMS FOR CONTACTS NOT INVOLVING HYDROGEN ATOMS              
 500 1.6 ANGSTROMS FOR CONTACTS INVOLVING HYDROGEN ATOMS                  
 500                                                                      
 500  ATM1  RES C  SSEQI   ATM2  RES C  SSEQI  SSYMOP   DISTANCE          
 500   O    HOH A   516     O    HOH A   522     3544     1.25            
 500                                                                      
 500 REMARK: NULL                                                         
 500                                                                      
 500 GEOMETRY AND STEREOCHEMISTRY                                         
 500 SUBTOPIC: TORSION ANGLES                                             
 500                                                                      
 500 TORSION ANGLES OUTSIDE THE EXPECTED RAMACHANDRAN REGIONS:            
 500 (M=MODEL NUMBER; RES=RESIDUE NAME; C=CHAIN IDENTIFIER;               
 500 SSEQ=SEQUENCE NUMBER; I=INSERTION CODE).                             
 500                                                                      
 500 STANDARD TABLE:                                                      
 500 FORMAT:(10X,I3,1X,A3,1X,A1,I4,A1,4X,F7.2,3X,F7.2)                    
 500                                                                      
 500 EXPECTED VALUES: GJ KLEYWEGT AND TA JONES (1996). PHI/PSI-           
 500 CHOLOGY: RAMACHANDRAN REVISITED. STRUCTURE 4, 1395 - 1400            
 500                                                                      
 500  M RES CSSEQI        PSI       PHI                                   
 500    CYS A  69     -143.36     50.15                                   
 500    ARG A 220     -121.39   -112.29                                   
 500                                                                      
 500 REMARK: NULL                                                         
 800                                                                      
 800 SITE                                                                 
 800 SITE_IDENTIFIER: AC1                                                 
 800 EVIDENCE_CODE: SOFTWARE                                              
 800 SITE_DESCRIPTION: BINDING SITE FOR RESIDUE NPB A 600                 
 900                                                                      
 900 RELATED ENTRIES                                                      
 900 RELATED ID: 3QXW   RELATED DB: PDB                                   
 900 THE SAME PROTEIN COMPLEXED WITH PSR3-226                             

>  <DBREF>
 3RXX A   26   291  UNP    Q9F663   BLKPC_KLEPN     26    289             

>  <SEQRES>
   1 A  264  THR ASN LEU VAL ALA GLU PRO PHE ALA LYS LEU GLU GLN          
   2 A  264  ASP PHE GLY GLY SER ILE GLY VAL TYR ALA MET ASP THR          
   3 A  264  GLY SER GLY ALA THR VAL SER TYR ARG ALA GLU GLU ARG          
   4 A  264  PHE PRO LEU CYS SER SER PHE LYS GLY PHE LEU ALA ALA          
   5 A  264  ALA VAL LEU ALA ARG SER GLN GLN GLN ALA GLY LEU LEU          
   6 A  264  ASP THR PRO ILE ARG TYR GLY LYS ASN ALA LEU VAL PRO          
   7 A  264  TRP SER PRO ILE SER GLU LYS TYR LEU THR THR GLY MET          
   8 A  264  THR VAL ALA GLU LEU SER ALA ALA ALA VAL GLN TYR SER          
   9 A  264  ASP ASN ALA ALA ALA ASN LEU LEU LEU LYS GLU LEU GLY          
  10 A  264  GLY PRO ALA GLY LEU THR ALA PHE MET ARG SER ILE GLY          
  11 A  264  ASP THR THR PHE ARG LEU ASP ARG TRP GLU LEU GLU LEU          
  12 A  264  ASN SER ALA ILE PRO GLY ASP ALA ARG ASP THR SER SER          
  13 A  264  PRO ARG ALA VAL THR GLU SER LEU GLN LYS LEU THR LEU          
  14 A  264  GLY SER ALA LEU ALA ALA PRO GLN ARG GLN GLN PHE VAL          
  15 A  264  ASP TRP LEU LYS GLY ASN THR THR GLY ASN HIS ARG ILE          
  16 A  264  ARG ALA ALA VAL PRO ALA ASP TRP ALA VAL GLY ASP LYS          
  17 A  264  THR GLY THR CYS GLY VAL TYR GLY THR ALA ASN ASP TYR          
  18 A  264  ALA VAL VAL TRP PRO THR GLY ARG ALA PRO ILE VAL LEU          
  19 A  264  ALA VAL TYR THR ARG ALA PRO ASN LYS ASP ASP LYS HIS          
  20 A  264  SER GLU ALA VAL ILE ALA ALA ALA ALA ARG LEU ALA LEU          
  21 A  264  GLU GLY LEU GLY                                              

>  <HET>
 NPB  A 600      12                                                       

>  <HETNAM>
     NPB 3-NITROPHENYLBORONIC ACID                                        

>  <FORMUL>
   2  NPB    C6 H6 B N O4                                                 
   3  HOH   *246(H2 O)                                                    

>  <HELIX>
   1   1 ALA A   30  GLY A   41  1                                  12    
   2   2 SER A   71  GLN A   85  1                                  15    
   3   3 GLY A   98  LEU A  102  5                                   5    
   4   4 SER A  106  TYR A  112  1                                   7    
   5   5 VAL A  119  SER A  130  1                                  12    
   6   6 ASP A  131  LEU A  142  1                                  12    
   7   7 GLY A  143  ILE A  155  1                                  13    
   8   8 LEU A  167  SER A  171  5                                   5    
   9   9 SER A  182  LEU A  195  1                                  14    
  10  10 ALA A  200  GLY A  213  1                                  14    
  11  11 ARG A  220  VAL A  225  5                                   6    
  12  12 GLY A  239  GLY A  242  5                                   4    
  13  13 SER A  275  LEU A  290  1                                  16    

>  <SHEET>
   1   A 5 THR A  56  TYR A  60  0                                        
   2   A 5 SER A  43  ASP A  50 -1  N  VAL A  46   O  TYR A  60           
   3   A 5 ILE A 259  ARG A 266 -1  O  ARG A 266   N  SER A  43           
   4   A 5 ALA A 244  TRP A 251 -1  N  VAL A 250   O  ILE A 259           
   5   A 5 ALA A 230  THR A 237 -1  N  ALA A 230   O  TRP A 251           
   1   B 2 PHE A  66  PRO A  67  0                                        
   2   B 2 THR A 180  SER A 181 -1  O  SER A 181   N  PHE A  66           
   1   C 2 PRO A  94  ILE A  95  0                                        
   2   C 2 MET A 117  THR A 118 -1  O  MET A 117   N  ILE A  95           

>  <SSBOND>
   1 CYS A   69    CYS A  238                          1555   1555  2.06  

>  <LINK>
       OG  SER A  70                 B   NPB A 600     1555   1555  1.60  

>  <CISPEP>
   1 GLU A  166    LEU A  167          0         8.55                     

>  <SITE>
   1 AC1  9 CYS A  69  SER A  70  TRP A 105  SER A 130                    
   2 AC1  9 ASN A 132  GLU A 166  ASN A 170  THR A 237                    
   3 AC1  9 ARG A 256                                                     

>  <ORIGX1>
      1.000000  0.000000  0.000000        0.00000                         

>  <ORIGX2>
      0.000000  1.000000  0.000000        0.00000                         

>  <ORIGX3>
      0.000000  0.000000  1.000000        0.00000                         

>  <SCALE1>
      0.019862  0.000000  0.000000        0.00000                         

>  <SCALE2>
      0.000000  0.015024  0.000000        0.00000                         

>  <SCALE3>
      0.000000  0.000000  0.013587        0.00000                         

>  <MASTER>
      288    0    1   13    9    0    3    6 2222    1   15   21          

$$$$
