start_structures/Ligand_Substrate/Ligand_Complex_Stripped/NXL_6W2Z.pdb
 OpenBabel08222315193D

 23 23  0  0  1  0  0  0  0  0999 V2000
   -7.9560    3.9570    7.7580 N   0  0  0  0  0  0  0  0  0  0  0  0
   -9.1720    4.7320    8.0250 C   0  0  2  0  0  0  0  0  0  0  0  0
  -10.2330    3.9800    8.8200 C   0  0  0  0  0  0  0  0  0  0  0  0
  -11.2140    4.6170    9.2280 O   0  0  0  0  0  0  0  0  0  0  0  0
   -9.8320    5.2170    6.7270 C   0  0  0  0  0  0  0  0  0  0  0  0
   -9.1170    6.2760    6.0960 O   0  0  0  0  0  0  0  0  0  0  0  0
   -7.6980    4.8570    5.0820 O   0  0  0  0  0  0  0  0  0  0  0  0
   -8.2180    5.9680    5.1000 C   0  0  0  0  0  0  0  0  0  0  0  0
   -7.8270    6.8540    4.3000 N   0  0  0  0  0  0  0  0  0  0  0  0
   -8.6260    8.0590    4.0520 C   0  0  0  0  0  0  0  0  0  0  0  0
   -6.5520    6.7170    3.6020 C   0  0  2  0  0  0  0  0  0  0  0  0
   -5.5330    7.7640    3.9660 C   0  0  0  0  0  0  0  0  0  0  0  0
   -4.6200    8.0140    3.1880 O   0  0  0  0  0  0  0  0  0  0  0  0
   -5.6720    8.3580    5.1470 N   0  0  0  0  0  0  0  0  0  0  0  0
   -6.8580    6.7890    2.1100 C   0  0  0  0  0  0  0  0  0  0  0  0
   -7.6530    8.0350    1.7320 C   0  0  0  0  0  0  0  0  0  0  0  0
   -8.9280    8.2210    2.5550 C   0  0  1  0  0  0  0  0  0  0  0  0
  -10.0520    7.3440    2.1130 N   0  0  0  0  0  0  0  0  0  0  0  0
   -9.6860    6.0600    1.9250 O   0  0  0  0  0  0  0  0  0  0  0  0
  -10.6110    4.9120    2.3580 S   0  0  0  0  0  0  0  0  0  0  0  0
  -10.8150    5.0280    3.8090 O   0  0  0  0  0  0  0  0  0  0  0  0
  -11.9060    5.0580    1.6590 O   0  0  0  0  0  0  0  0  0  0  0  0
  -10.0050    3.6030    2.0250 O   0  0  0  0  0  0  0  0  0  0  0  0
  2  1  1  6  0  0  0
  2  3  1  0  0  0  0
  3  4  2  0  0  0  0
  5  2  1  0  0  0  0
  6  8  1  0  0  0  0
  6  5  1  0  0  0  0
  7  8  2  0  0  0  0
  8  9  1  0  0  0  0
  9 10  1  0  0  0  0
  9 11  1  0  0  0  0
 10 17  1  0  0  0  0
 11 12  1  1  0  0  0
 11 15  1  0  0  0  0
 12 13  2  0  0  0  0
 12 14  1  0  0  0  0
 15 16  1  0  0  0  0
 16 17  1  0  0  0  0
 17 18  1  6  0  0  0
 18 19  1  0  0  0  0
 19 20  1  0  0  0  0
 20 21  1  0  0  0  0
 20 22  1  0  0  0  0
 20 23  1  0  0  0  0
M  END
>  <HEADER>
    HYDROLASE                               08-MAR-20   6W2Z              

>  <TITLE>
    CRYSTAL STRUCTURE OF THE BETA LACTAMASE CLASS A PENP FROM BACILLUS    
   2 SUBTILIS IN THE COMPLEX WITH THE NON-BETA- LACTAM BETA-LACTAMASE     
   3 INHIBITOR AVIBACTAM                                                  

>  <COMPND>
    MOL_ID: 1;                                                            
   2 MOLECULE: BETA-LACTAMASE;                                            
   3 CHAIN: A, B;                                                         
   4 SYNONYM: PENICILLINASE;                                              
   5 EC: 3.5.2.6;                                                         
   6 ENGINEERED: YES                                                      

>  <SOURCE>
    MOL_ID: 1;                                                            
   2 ORGANISM_SCIENTIFIC: BACILLUS SUBTILIS (STRAIN 168);                 
   3 ORGANISM_TAXID: 224308;                                              
   4 STRAIN: 168;                                                         
   5 GENE: PENP, BSU18800;                                                
   6 EXPRESSION_SYSTEM: ESCHERICHIA COLI BL21(DE3);                       
   7 EXPRESSION_SYSTEM_TAXID: 469008;                                     
   8 EXPRESSION_SYSTEM_VARIANT: GOLD;                                     
   9 EXPRESSION_SYSTEM_VECTOR_TYPE: PLASMID;                              
  10 EXPRESSION_SYSTEM_PLASMID: PMCSG53                                   

>  <KEYWDS>
    BETA LACTAMASE CLASS A, INHIBITOR, STRUCTURAL GENOMICS, CENTER FOR    
   2 STRUCTURAL GENOMICS OF INFECTIOUS DISEASES, HYDROLASE, CSGID         

>  <EXPDTA>
    X-RAY DIFFRACTION                                                     

>  <AUTHOR>
    Y.KIM,N.MALTSEVA,M.ENDRES,A.JOACHIMIAK,CENTER FOR STRUCTURAL GENOMICS 
   2 OF INFECTIOUS DISEASES (CSGID)                                       

>  <REVDAT>
   1   25-MAR-20 6W2Z    0                                                

>  <JRNL>
      AUTH   Y.KIM,N.MALTSEVA,M.ENDRES,A.JOACHIMIAK,                      
      AUTH 2 CENTER FOR STRUCTURAL GENOMICS OF INFECTIOUS DISEASES        
      AUTH 3 (CSGID)                                                      
      TITL   CRYSTAL STRUCTURE OF THE BETA LACTAMASE CLASS A PENP FROM    
      TITL 2 BACILLUS SUBTILIS IN THE COMPLEX WITH THE NON-BETA- LACTAM   
      TITL 3 BETA-LACTAMASE INHIBITOR AVIBACTAM                           
      REF    TO BE PUBLISHED                                              
      REFN                                                                

>  <REMARK>
   2                                                                      
   2 RESOLUTION.    1.50 ANGSTROMS.                                       
   3                                                                      
   3 REFINEMENT.                                                          
   3   PROGRAM     : PHENIX 1.13_2998                                     
   3   AUTHORS     : PAUL ADAMS,PAVEL AFONINE,VINCENT CHEN,IAN            
   3               : DAVIS,KRESHNA GOPAL,RALF GROSSE-KUNSTLEVE,           
   3               : LI-WEI HUNG,ROBERT IMMORMINO,TOM IOERGER,            
   3               : AIRLIE MCCOY,ERIK MCKEE,NIGEL MORIARTY,              
   3               : REETAL PAI,RANDY READ,JANE RICHARDSON,               
   3               : DAVID RICHARDSON,TOD ROMO,JIM SACCHETTINI,           
   3               : NICHOLAS SAUTER,JACOB SMITH,LAURENT                  
   3               : STORONI,TOM TERWILLIGER,PETER ZWART                  
   3                                                                      
   3    REFINEMENT TARGET : NULL                                          
   3                                                                      
   3  DATA USED IN REFINEMENT.                                            
   3   RESOLUTION RANGE HIGH (ANGSTROMS) : 1.50                           
   3   RESOLUTION RANGE LOW  (ANGSTROMS) : 27.10                          
   3   MIN(FOBS/SIGMA_FOBS)              : 1.380                          
   3   COMPLETENESS FOR RANGE        (%) : 94.7                           
   3   NUMBER OF REFLECTIONS             : 71351                          
   3                                                                      
   3  FIT TO DATA USED IN REFINEMENT.                                     
   3   R VALUE     (WORKING + TEST SET) : 0.163                           
   3   R VALUE            (WORKING SET) : 0.161                           
   3   FREE R VALUE                     : 0.199                           
   3   FREE R VALUE TEST SET SIZE   (%) : 4.930                           
   3   FREE R VALUE TEST SET COUNT      : 3521                            
   3                                                                      
   3  FIT TO DATA USED IN REFINEMENT (IN BINS).                           
   3   BIN  RESOLUTION RANGE  COMPL.    NWORK NFREE   RWORK  RFREE        
   3     1 27.1000 -  4.3700    0.97     2850   147  0.1486 0.1532        
   3     2  4.3700 -  3.4700    0.99     2871   156  0.1374 0.1695        
   3     3  3.4700 -  3.0300    0.99     2847   139  0.1647 0.1871        
   3     4  3.0300 -  2.7500    0.97     2800   144  0.1729 0.1988        
   3     5  2.7500 -  2.5600    0.95     2727   152  0.1615 0.1916        
   3     6  2.5600 -  2.4100    0.93     2628   157  0.1518 0.2052        
   3     7  2.4100 -  2.2900    0.93     2661   148  0.1566 0.2100        
   3     8  2.2900 -  2.1900    0.94     2676   138  0.1567 0.2130        
   3     9  2.1900 -  2.1000    0.95     2676   162  0.1547 0.2097        
   3    10  2.1000 -  2.0300    0.94     2740   128  0.1608 0.2285        
   3    11  2.0300 -  1.9700    0.95     2725   137  0.1659 0.2040        
   3    12  1.9700 -  1.9100    0.96     2719   149  0.1703 0.2454        
   3    13  1.9100 -  1.8600    0.96     2741   136  0.1616 0.2200        
   3    14  1.8600 -  1.8100    0.96     2748   125  0.1698 0.2305        
   3    15  1.8100 -  1.7700    0.95     2766   136  0.1739 0.2390        
   3    16  1.7700 -  1.7400    0.96     2744   141  0.1815 0.2474        
   3    17  1.7400 -  1.7000    0.96     2725   144  0.1793 0.2551        
   3    18  1.7000 -  1.6700    0.96     2753   140  0.1760 0.2522        
   3    19  1.6700 -  1.6400    0.96     2721   144  0.1782 0.2393        
   3    20  1.6400 -  1.6100    0.96     2780   131  0.1774 0.2435        
   3    21  1.6100 -  1.5900    0.96     2725   145  0.1974 0.2789        
   3    22  1.5900 -  1.5600    0.95     2698   153  0.2121 0.2606        
   3    23  1.5600 -  1.5400    0.96     2730   129  0.2160 0.2338        
   3    24  1.5400 -  1.5200    0.93     2663   122  0.2338 0.2917        
   3    25  1.5200 -  1.5000    0.75     2116   118  0.2419 0.2803        
   3                                                                      
   3  BULK SOLVENT MODELLING.                                             
   3   METHOD USED        : NULL                                          
   3   SOLVENT RADIUS     : 1.11                                          
   3   SHRINKAGE RADIUS   : 0.90                                          
   3   K_SOL              : NULL                                          
   3   B_SOL              : NULL                                          
   3                                                                      
   3  ERROR ESTIMATES.                                                    
   3   COORDINATE ERROR (MAXIMUM-LIKELIHOOD BASED)     : 0.178            
   3   PHASE ERROR (DEGREES, MAXIMUM-LIKELIHOOD BASED) : 21.308           
   3                                                                      
   3  B VALUES.                                                           
   3   FROM WILSON PLOT           (A**2) : 20.45                          
   3   MEAN B VALUE      (OVERALL, A**2) : 25.77                          
   3   OVERALL ANISOTROPIC B VALUE.                                       
   3    B11 (A**2) : NULL                                                 
   3    B22 (A**2) : NULL                                                 
   3    B33 (A**2) : NULL                                                 
   3    B12 (A**2) : NULL                                                 
   3    B13 (A**2) : NULL                                                 
   3    B23 (A**2) : NULL                                                 
   3                                                                      
   3  TWINNING INFORMATION.                                               
   3   FRACTION: NULL                                                     
   3   OPERATOR: NULL                                                     
   3                                                                      
   3  DEVIATIONS FROM IDEAL VALUES.                                       
   3                 RMSD          COUNT                                  
   3   BOND      :  0.006           4168                                  
   3   ANGLE     :  0.864           5643                                  
   3   CHIRALITY :  0.079            653                                  
   3   PLANARITY :  0.005            723                                  
   3   DIHEDRAL  : 16.198           1557                                  
   3                                                                      
   3  TLS DETAILS                                                         
   3   NUMBER OF TLS GROUPS  : NULL                                       
   3                                                                      
   3  NCS DETAILS                                                         
   3   NUMBER OF NCS GROUPS : NULL                                        
   3                                                                      
   3  OTHER REFINEMENT REMARKS: NULL                                      
   4                                                                      
   4 6W2Z COMPLIES WITH FORMAT V. 3.30, 13-JUL-11                         
 100                                                                      
 100 THIS ENTRY HAS BEEN PROCESSED BY RCSB ON 10-MAR-20.                  
 100 THE DEPOSITION ID IS D_1000247540.                                   
 200                                                                      
 200 EXPERIMENTAL DETAILS                                                 
 200  EXPERIMENT TYPE                : X-RAY DIFFRACTION                  
 200  DATE OF DATA COLLECTION        : 10-APR-19                          
 200  TEMPERATURE           (KELVIN) : 100                                
 200  PH                             : 8.8                                
 200  NUMBER OF CRYSTALS USED        : 1                                  
 200                                                                      
 200  SYNCHROTRON              (Y/N) : Y                                  
 200  RADIATION SOURCE               : APS                                
 200  BEAMLINE                       : 19-BM                              
 200  X-RAY GENERATOR MODEL          : NULL                               
 200  MONOCHROMATIC OR LAUE    (M/L) : M                                  
 200  WAVELENGTH OR RANGE        (A) : 0.97935                            
 200  MONOCHROMATOR                  : NULL                               
 200  OPTICS                         : NULL                               
 200                                                                      
 200  DETECTOR TYPE                  : CCD                                
 200  DETECTOR MANUFACTURER          : ADSC QUANTUM 210R                  
 200  INTENSITY-INTEGRATION SOFTWARE : HKL-3000                           
 200  DATA SCALING SOFTWARE          : HKL-3000                           
 200                                                                      
 200  NUMBER OF UNIQUE REFLECTIONS   : 71543                              
 200  RESOLUTION RANGE HIGH      (A) : 1.500                              
 200  RESOLUTION RANGE LOW       (A) : 50.000                             
 200  REJECTION CRITERIA  (SIGMA(I)) : NULL                               
 200                                                                      
 200 OVERALL.                                                             
 200  COMPLETENESS FOR RANGE     (%) : 95.4                               
 200  DATA REDUNDANCY                : 4.400                              
 200  R MERGE                    (I) : 0.06000                            
 200  R SYM                      (I) : NULL                               
 200  <I/SIGMA(I)> FOR THE DATA SET  : 23.3000                            
 200                                                                      
 200 IN THE HIGHEST RESOLUTION SHELL.                                     
 200  HIGHEST RESOLUTION SHELL, RANGE HIGH (A) : 1.50                     
 200  HIGHEST RESOLUTION SHELL, RANGE LOW  (A) : 1.53                     
 200  COMPLETENESS FOR SHELL     (%) : 86.3                               
 200  DATA REDUNDANCY IN SHELL       : 3.50                               
 200  R MERGE FOR SHELL          (I) : 0.89000                            
 200  R SYM FOR SHELL            (I) : NULL                               
 200  <I/SIGMA(I)> FOR SHELL         : 1.410                              
 200                                                                      
 200 DIFFRACTION PROTOCOL: SINGLE WAVELENGTH                              
 200 METHOD USED TO DETERMINE THE STRUCTURE: MOLECULAR REPLACEMENT        
 200 SOFTWARE USED: HKL-3000, MOLREP                                      
 200 STARTING MODEL: PDBID 6NI1                                           
 200                                                                      
 200 REMARK: NULL                                                         
 280                                                                      
 280 CRYSTAL                                                              
 280 SOLVENT CONTENT, VS   (%): 37.18                                     
 280 MATTHEWS COEFFICIENT, VM (ANGSTROMS**3/DA): 1.96                     
 280                                                                      
 280 CRYSTALLIZATION CONDITIONS: 50 MM BICINE PH 8.8, 2.9 %(V/V), 25.7    
 280  %(W/V) PEG2000, VAPOR DIFFUSION, SITTING DROP, TEMPERATURE 289K     
 290                                                                      
 290 CRYSTALLOGRAPHIC SYMMETRY                                            
 290 SYMMETRY OPERATORS FOR SPACE GROUP: P 1 21 1                         
 290                                                                      
 290      SYMOP   SYMMETRY                                                
 290     NNNMMM   OPERATOR                                                
 290       1555   X,Y,Z                                                   
 290       2555   -X,Y+1/2,-Z                                             
 290                                                                      
 290     WHERE NNN -> OPERATOR NUMBER                                     
 290           MMM -> TRANSLATION VECTOR                                  
 290                                                                      
 290 CRYSTALLOGRAPHIC SYMMETRY TRANSFORMATIONS                            
 290 THE FOLLOWING TRANSFORMATIONS OPERATE ON THE ATOM/HETATM             
 290 RECORDS IN THIS ENTRY TO PRODUCE CRYSTALLOGRAPHICALLY                
 290 RELATED MOLECULES.                                                   
 290   SMTRY1   1  1.000000  0.000000  0.000000        0.00000            
 290   SMTRY2   1  0.000000  1.000000  0.000000        0.00000            
 290   SMTRY3   1  0.000000  0.000000  1.000000        0.00000            
 290   SMTRY1   2 -1.000000  0.000000  0.000000        0.00000            
 290   SMTRY2   2  0.000000  1.000000  0.000000       42.72800            
 290   SMTRY3   2  0.000000  0.000000 -1.000000        0.00000            
 290                                                                      
 290 REMARK: NULL                                                         
 300                                                                      
 300 BIOMOLECULE: 1, 2                                                    
 300 SEE REMARK 350 FOR THE AUTHOR PROVIDED AND/OR PROGRAM                
 300 GENERATED ASSEMBLY INFORMATION FOR THE STRUCTURE IN                  
 300 THIS ENTRY. THE REMARK MAY ALSO PROVIDE INFORMATION ON               
 300 BURIED SURFACE AREA.                                                 
 350                                                                      
 350 COORDINATES FOR A COMPLETE MULTIMER REPRESENTING THE KNOWN           
 350 BIOLOGICALLY SIGNIFICANT OLIGOMERIZATION STATE OF THE                
 350 MOLECULE CAN BE GENERATED BY APPLYING BIOMT TRANSFORMATIONS          
 350 GIVEN BELOW.  BOTH NON-CRYSTALLOGRAPHIC AND                          
 350 CRYSTALLOGRAPHIC OPERATIONS ARE GIVEN.                               
 350                                                                      
 350 BIOMOLECULE: 1                                                       
 350 AUTHOR DETERMINED BIOLOGICAL UNIT: MONOMERIC                         
 350 SOFTWARE DETERMINED QUATERNARY STRUCTURE: MONOMERIC                  
 350 SOFTWARE USED: PISA                                                  
 350 APPLY THE FOLLOWING TO CHAINS: A                                     
 350   BIOMT1   1  1.000000  0.000000  0.000000        0.00000            
 350   BIOMT2   1  0.000000  1.000000  0.000000        0.00000            
 350   BIOMT3   1  0.000000  0.000000  1.000000        0.00000            
 350                                                                      
 350 BIOMOLECULE: 2                                                       
 350 AUTHOR DETERMINED BIOLOGICAL UNIT: MONOMERIC                         
 350 SOFTWARE DETERMINED QUATERNARY STRUCTURE: MONOMERIC                  
 350 SOFTWARE USED: PISA                                                  
 350 APPLY THE FOLLOWING TO CHAINS: B                                     
 350   BIOMT1   1  1.000000  0.000000  0.000000        0.00000            
 350   BIOMT2   1  0.000000  1.000000  0.000000        0.00000            
 350   BIOMT3   1  0.000000  0.000000  1.000000        0.00000            
 465                                                                      
 465 MISSING RESIDUES                                                     
 465 THE FOLLOWING RESIDUES WERE NOT LOCATED IN THE                       
 465 EXPERIMENT. (M=MODEL NUMBER; RES=RESIDUE NAME; C=CHAIN               
 465 IDENTIFIER; SSSEQ=SEQUENCE NUMBER; I=INSERTION CODE.)                
 465                                                                      
 465   M RES C SSSEQI                                                     
 465     SER A    32                                                      
 465     ASN A    33                                                      
 465     ALA A    34                                                      
 465     GLU A    35                                                      
 465     ALA A    36                                                      
 465     LYS A    37                                                      
 465     SER A    38                                                      
 465     ILE A    39                                                      
 465     GLU A    40                                                      
 465     ASP A    41                                                      
 465     THR A    42                                                      
 465     ASN A    43                                                      
 465     MET A    44                                                      
 465     ALA A    45                                                      
 465     SER A    46                                                      
 465     SER B    32                                                      
 465     ASN B    33                                                      
 465     ALA B    34                                                      
 465     GLU B    35                                                      
 465     ALA B    36                                                      
 465     LYS B    37                                                      
 465     SER B    38                                                      
 465     ILE B    39                                                      
 465     GLU B    40                                                      
 465     ASP B    41                                                      
 465     THR B    42                                                      
 465     ASN B    43                                                      
 465     MET B    44                                                      
 465     ALA B    45                                                      
 470                                                                      
 470 MISSING ATOM                                                         
 470 THE FOLLOWING RESIDUES HAVE MISSING ATOMS (M=MODEL NUMBER;           
 470 RES=RESIDUE NAME; C=CHAIN IDENTIFIER; SSEQ=SEQUENCE NUMBER;          
 470 I=INSERTION CODE):                                                   
 470   M RES CSSEQI  ATOMS                                                
 470     SER B  46    OG                                                  
 500                                                                      
 500 GEOMETRY AND STEREOCHEMISTRY                                         
 500 SUBTOPIC: TORSION ANGLES                                             
 500                                                                      
 500 TORSION ANGLES OUTSIDE THE EXPECTED RAMACHANDRAN REGIONS:            
 500 (M=MODEL NUMBER; RES=RESIDUE NAME; C=CHAIN IDENTIFIER;               
 500 SSEQ=SEQUENCE NUMBER; I=INSERTION CODE).                             
 500                                                                      
 500 STANDARD TABLE:                                                      
 500 FORMAT:(10X,I3,1X,A3,1X,A1,I4,A1,4X,F7.2,3X,F7.2)                    
 500                                                                      
 500 EXPECTED VALUES: GJ KLEYWEGT AND TA JONES (1996). PHI/PSI-           
 500 CHOLOGY: RAMACHANDRAN REVISITED. STRUCTURE 4, 1395 - 1400            
 500                                                                      
 500  M RES CSSEQI        PSI       PHI                                   
 500    ALA A  88     -140.05     47.65                                   
 500    TYR A 122       68.90     61.90                                   
 500    LYS A 180      -30.73   -133.11                                   
 500    LEU A 237     -120.90   -110.70                                   
 500    ARG A 282     -166.82   -120.46                                   
 500    ALA B  88     -141.89     47.46                                   
 500    LEU B 212      -36.95   -131.11                                   
 500    ASN B 214        2.99    -68.59                                   
 500    LEU B 237     -123.71   -110.65                                   
 500    ARG B 282     -164.29   -112.99                                   
 500                                                                      
 500 REMARK: NULL                                                         
 525                                                                      
 525 SOLVENT                                                              
 525                                                                      
 525 THE SOLVENT MOLECULES HAVE CHAIN IDENTIFIERS THAT                    
 525 INDICATE THE POLYMER CHAIN WITH WHICH THEY ARE MOST                  
 525 CLOSELY ASSOCIATED. THE REMARK LISTS ALL THE SOLVENT                 
 525 MOLECULES WHICH ARE MORE THAN 5A AWAY FROM THE                       
 525 NEAREST POLYMER CHAIN (M = MODEL NUMBER;                             
 525 RES=RESIDUE NAME; C=CHAIN IDENTIFIER; SSEQ=SEQUENCE                  
 525 NUMBER; I=INSERTION CODE):                                           
 525                                                                      
 525  M RES CSSEQI                                                        
 525    HOH A 683        DISTANCE =  5.97 ANGSTROMS                       
 525    HOH A 684        DISTANCE =  7.57 ANGSTROMS                       
 525    HOH A 685        DISTANCE =  7.61 ANGSTROMS                       
 525    HOH B 664        DISTANCE =  5.87 ANGSTROMS                       
 525    HOH B 665        DISTANCE =  6.25 ANGSTROMS                       
 525    HOH B 666        DISTANCE =  6.51 ANGSTROMS                       
 525    HOH B 667        DISTANCE =  6.99 ANGSTROMS                       
 800                                                                      
 800 SITE                                                                 
 800 SITE_IDENTIFIER: AC1                                                 
 800 EVIDENCE_CODE: SOFTWARE                                              
 800 SITE_DESCRIPTION: binding site for residue NXL A 401                 
 800                                                                      
 800 SITE_IDENTIFIER: AC2                                                 
 800 EVIDENCE_CODE: SOFTWARE                                              
 800 SITE_DESCRIPTION: binding site for residue FMT A 402                 
 800                                                                      
 800 SITE_IDENTIFIER: AC3                                                 
 800 EVIDENCE_CODE: SOFTWARE                                              
 800 SITE_DESCRIPTION: binding site for residue EDO B 401                 
 800                                                                      
 800 SITE_IDENTIFIER: AC4                                                 
 800 EVIDENCE_CODE: SOFTWARE                                              
 800 SITE_DESCRIPTION: binding site for Di-peptide NXL B 402 and SER B    
 800  89                                                                  
 900                                                                      
 900 RELATED ENTRIES                                                      
 900 RELATED ID: 6NI1   RELATED DB: PDB                                   
 900 THE SAME PROTEIN, APO-FORM                                           
 900 RELATED ID: IDP07475   RELATED DB: TARGETTRACK                       

>  <DBREF>
 6W2Z A   34   306  UNP    P39824   BLAC_BACSU      34    306             
 6W2Z B   34   306  UNP    P39824   BLAC_BACSU      34    306             

>  <SEQADV>
 6W2Z SER A   32  UNP  P39824              EXPRESSION TAG                 
 6W2Z ASN A   33  UNP  P39824              EXPRESSION TAG                 
 6W2Z SER B   32  UNP  P39824              EXPRESSION TAG                 
 6W2Z ASN B   33  UNP  P39824              EXPRESSION TAG                 

>  <SEQRES>
   1 A  275  SER ASN ALA GLU ALA LYS SER ILE GLU ASP THR ASN MET          
   2 A  275  ALA SER CYS ILE THR ASN LYS LYS PHE VAL GLN LEU GLU          
   3 A  275  LYS LYS PHE ASP ALA ARG LEU GLY VAL TYR ALA ILE ASP          
   4 A  275  ILE GLY SER ASN LYS THR ILE ALA TYR ARG PRO ASN GLU          
   5 A  275  ARG PHE ALA TYR ALA SER THR TYR LYS VAL LEU ALA ALA          
   6 A  275  ALA ALA VAL LEU LYS LYS ASN SER ILE GLU LYS LEU ASN          
   7 A  275  GLU VAL ILE HIS TYR SER LYS ASP ASP LEU VAL THR TYR          
   8 A  275  SER PRO ILE THR GLU LYS HIS LEU ASP THR GLY MET SER          
   9 A  275  LEU LYS GLU ILE SER GLU ALA ALA ILE ARG TYR SER ASP          
  10 A  275  ASN THR ALA GLY ASN ILE LEU LEU GLN GLN LEU GLY GLY          
  11 A  275  PRO LYS GLY PHE GLU LYS SER LEU LYS GLN ILE GLY ASP          
  12 A  275  HIS VAL THR LYS ALA LYS ARG PHE GLU THR ASP LEU ASN          
  13 A  275  SER ALA ILE PRO GLY ASP ILE ARG ASP THR SER THR ALA          
  14 A  275  LYS ALA LEU ALA THR ASP LEU LYS ALA PHE THR LEU ASP          
  15 A  275  ASN THR LEU THR THR ASP LYS ARG MET ILE LEU THR ASP          
  16 A  275  TRP MET ARG GLY ASN ALA THR GLY ASP GLU LEU ILE ARG          
  17 A  275  ALA GLY ALA PRO ILE GLY TRP GLU VAL GLY ASP LYS SER          
  18 A  275  GLY ALA GLY SER TYR GLY THR ARG ASN ASP ILE ALA ILE          
  19 A  275  VAL TRP PRO PRO ASN ARG ALA PRO ILE VAL VAL ALA ILE          
  20 A  275  LEU SER ASN ARG PHE THR LYS ASP ALA ASN TYR ASP ASN          
  21 A  275  ALA LEU ILE ALA GLU ALA ALA LYS VAL VAL LEU ASN ASP          
  22 A  275  LEU LYS                                                      
   1 B  275  SER ASN ALA GLU ALA LYS SER ILE GLU ASP THR ASN MET          
   2 B  275  ALA SER CYS ILE THR ASN LYS LYS PHE VAL GLN LEU GLU          
   3 B  275  LYS LYS PHE ASP ALA ARG LEU GLY VAL TYR ALA ILE ASP          
   4 B  275  ILE GLY SER ASN LYS THR ILE ALA TYR ARG PRO ASN GLU          
   5 B  275  ARG PHE ALA TYR ALA SER THR TYR LYS VAL LEU ALA ALA          
   6 B  275  ALA ALA VAL LEU LYS LYS ASN SER ILE GLU LYS LEU ASN          
   7 B  275  GLU VAL ILE HIS TYR SER LYS ASP ASP LEU VAL THR TYR          
   8 B  275  SER PRO ILE THR GLU LYS HIS LEU ASP THR GLY MET SER          
   9 B  275  LEU LYS GLU ILE SER GLU ALA ALA ILE ARG TYR SER ASP          
  10 B  275  ASN THR ALA GLY ASN ILE LEU LEU GLN GLN LEU GLY GLY          
  11 B  275  PRO LYS GLY PHE GLU LYS SER LEU LYS GLN ILE GLY ASP          
  12 B  275  HIS VAL THR LYS ALA LYS ARG PHE GLU THR ASP LEU ASN          
  13 B  275  SER ALA ILE PRO GLY ASP ILE ARG ASP THR SER THR ALA          
  14 B  275  LYS ALA LEU ALA THR ASP LEU LYS ALA PHE THR LEU ASP          
  15 B  275  ASN THR LEU THR THR ASP LYS ARG MET ILE LEU THR ASP          
  16 B  275  TRP MET ARG GLY ASN ALA THR GLY ASP GLU LEU ILE ARG          
  17 B  275  ALA GLY ALA PRO ILE GLY TRP GLU VAL GLY ASP LYS SER          
  18 B  275  GLY ALA GLY SER TYR GLY THR ARG ASN ASP ILE ALA ILE          
  19 B  275  VAL TRP PRO PRO ASN ARG ALA PRO ILE VAL VAL ALA ILE          
  20 B  275  LEU SER ASN ARG PHE THR LYS ASP ALA ASN TYR ASP ASN          
  21 B  275  ALA LEU ILE ALA GLU ALA ALA LYS VAL VAL LEU ASN ASP          
  22 B  275  LEU LYS                                                      

>  <HET>
 NXL  A 401      17                                                       
 FMT  A 402       3                                                       
 EDO  B 401       4                                                       
 NXL  B 402      17                                                       

>  <HETNAM>
     NXL (2S,5R)-1-FORMYL-5-[(SULFOOXY)AMINO]PIPERIDINE-2-                
   2 NXL  CARBOXAMIDE                                                     
     FMT FORMIC ACID                                                      
     EDO 1,2-ETHANEDIOL                                                   

>  <HETSYN>
     NXL AVIBACTAM, BOUND FORM; NXL104, BOUND FORM                        
     EDO ETHYLENE GLYCOL                                                  

>  <FORMUL>
   3  NXL    2(C7 H13 N3 O6 S)                                            
   4  FMT    C H2 O2                                                      
   5  EDO    C2 H6 O2                                                     
   7  HOH   *352(H2 O)                                                    

>  <HELIX>
   1 AA1 CYS A   47  ASP A   61  1                                  15    
   2 AA2 THR A   90  ASN A  103  1                                  14    
   3 AA3 SER A  104  GLU A  110  1                                   7    
   4 AA4 SER A  115  LEU A  119  5                                   5    
   5 AA5 ILE A  125  LEU A  130  5                                   6    
   6 AA6 LEU A  136  SER A  147  1                                  12    
   7 AA7 ASP A  148  LEU A  159  1                                  12    
   8 AA8 GLY A  160  ILE A  172  1                                  13    
   9 AA9 THR A  184  SER A  188  5                                   5    
  10 AB1 THR A  199  LEU A  212  1                                  14    
  11 AB2 THR A  217  ARG A  229  1                                  13    
  12 AB3 ASN A  231  ASP A  235  5                                   5    
  13 AB4 LEU A  237  ALA A  242  1                                   6    
  14 AB5 ASP A  290  LEU A  305  1                                  16    
  15 AB6 CYS B   47  ASP B   61  1                                  15    
  16 AB7 THR B   90  ASN B  103  1                                  14    
  17 AB8 ILE B  105  ASN B  109  5                                   5    
  18 AB9 SER B  115  LEU B  119  5                                   5    
  19 AC1 ILE B  125  HIS B  129  5                                   5    
  20 AC2 LEU B  136  SER B  147  1                                  12    
  21 AC3 ASP B  148  LEU B  159  1                                  12    
  22 AC4 GLY B  160  GLN B  171  1                                  12    
  23 AC5 THR B  184  SER B  188  5                                   5    
  24 AC6 ALA B  200  LEU B  212  1                                  13    
  25 AC7 THR B  217  ARG B  229  1                                  13    
  26 AC8 ASN B  231  ASP B  235  5                                   5    
  27 AC9 LEU B  237  ALA B  242  5                                   6    
  28 AD1 ASP B  290  LYS B  306  1                                  17    

>  <SHEET>
   1 AA1 5 THR A  76  TYR A  79  0                                        
   2 AA1 5 ARG A  63  ASP A  70 -1  N  VAL A  66   O  TYR A  79           
   3 AA1 5 ILE A 274  ASN A 281 -1  O  LEU A 279   N  GLY A  65           
   4 AA1 5 THR A 259  TRP A 267 -1  N  VAL A 266   O  ILE A 274           
   5 AA1 5 GLU A 247  GLY A 255 -1  N  GLU A 247   O  TRP A 267           
   1 AA2 2 PHE A  85  ALA A  86  0                                        
   2 AA2 2 THR A 197  SER A 198 -1  O  SER A 198   N  PHE A  85           
   1 AA3 2 VAL A 111  ILE A 112  0                                        
   2 AA3 2 MET A 134  SER A 135 -1  O  MET A 134   N  ILE A 112           
   1 AA4 5 THR B  76  TYR B  79  0                                        
   2 AA4 5 ARG B  63  ASP B  70 -1  N  VAL B  66   O  TYR B  79           
   3 AA4 5 ILE B 274  ASN B 281 -1  O  LEU B 279   N  GLY B  65           
   4 AA4 5 THR B 259  TRP B 267 -1  N  VAL B 266   O  ILE B 274           
   5 AA4 5 GLU B 247  GLY B 255 -1  N  GLU B 247   O  TRP B 267           
   1 AA5 2 ARG B  84  ALA B  86  0                                        
   2 AA5 2 THR B 197  THR B 199 -1  O  SER B 198   N  PHE B  85           
   1 AA6 2 VAL B 111  ILE B 112  0                                        
   2 AA6 2 MET B 134  SER B 135 -1  O  MET B 134   N  ILE B 112           

>  <LINK>
       OG  SER A  89                 CAN NXL A 401     1555   1555  1.38  
       OG  SER B  89                 CAN NXL B 402     1555   1555  1.37  

>  <CISPEP>
   1 GLU A  183    THR A  184          0         1.19                     
   2 GLU B  183    THR B  184          0         1.61                     

>  <SITE>
   1 AC1 17 ALA A  88  SER A  89  LYS A  92  SER A 147                    
   2 AC1 17 ASN A 149  GLU A 183  ASN A 187  THR A 233                    
   3 AC1 17 LYS A 251  SER A 252  GLY A 253  ALA A 254                    
   4 AC1 17 ARG A 260  HOH A 511  HOH A 548  HOH A 576                    
   5 AC1 17 HOH A 620                                                     
   1 AC2  4 VAL A 111  HIS A 113  HOH A 533  HOH A 606                    
   1 AC3  3 ALA B  62  ARG B  80  PHE B 283                               
   1 AC4 19 TYR B  87  ALA B  88  THR B  90  TYR B  91                    
   2 AC4 19 LYS B  92  TYR B 122  SER B 147  ASN B 149                    
   3 AC4 19 GLU B 183  ASN B 187  THR B 233  LYS B 251                    
   4 AC4 19 SER B 252  GLY B 253  ALA B 254  ARG B 260                    
   5 AC4 19 HOH B 532  HOH B 551  HOH B 575                               

>  <ORIGX1>
      1.000000  0.000000  0.000000        0.00000                         

>  <ORIGX2>
      0.000000  1.000000  0.000000        0.00000                         

>  <ORIGX3>
      0.000000  0.000000  1.000000        0.00000                         

>  <SCALE1>
      0.025201  0.000000  0.002191        0.00000                         

>  <SCALE2>
      0.000000  0.011702  0.000000        0.00000                         

>  <SCALE3>
      0.000000  0.000000  0.014266        0.00000                         

>  <ANISOU>
  343  N   SER A  89     1350   2238   2262    330    -19    470       N  
  344  CA  SER A  89     1436   2221   2422    341    342    746       C  
  345  C   SER A  89     1537   1853   2588    127    181    487       C  
  346  O   SER A  89     1493   1922   2638    116    186    371       O  
  347  CB  SER A  89     1447   2308   2474    195    155   1142       C  
  348  OG  SER A  89     1766   2529   2911      8    165   1019       O  
 4061  OAC NXL A 401     1527   2555   2858     99   -268   1112       O  
 4062  CAN NXL A 401     1938   2636   3007     76   -207   1180       C  
 4063  N   NXL A 401     3143   2857   3647    115    650   1456       N  
 4064  CAJ NXL A 401     4036   3017   3999    309    907   1716       C  
 4065  CA  NXL A 401     4047   3034   4060   -134   1196   1562       C  
 4066  C   NXL A 401     4413   3124   4388   -463   1406   1440       C  
 4067  O   NXL A 401     4608   3356   4542   -753   1475   1144       O  
 4068  NAA NXL A 401     4209   2965   4434   -294   1034   1408       N  
 4069  CB  NXL A 401     4564   3194   4272    103   1282   1658       C  
 4070  CAH NXL A 401     4748   3265   4346    322   1455   1748       C  
 4071  CAO NXL A 401     4605   3124   4405    295   1415   1865       C  
 4072  NAK NXL A 401     4973   3090   4743    472   1228   1923       N  
 4073  OAL NXL A 401     4678   3064   4954    513   1091   2064       O  
 4074  SAR NXL A 401     3991   3192   4921    600    800   2082       S  
 4075  OAD NXL A 401     3831   3250   4917    471    953   2214       O  
 4076  OAE NXL A 401     4286   3029   5179    965   1356   2001       O  
 4077  OAG NXL A 401     4438   3075   5129    764    851   2111       O  

>  <MASTER>
      326    0    4   28   18    0   12    6 4414    2   43   44          

$$$$
