start_structures/Ligand_Substrate/Ligand_Complex_Stripped/OC0_7UTB.pdb
 OpenBabel08222315203D

 33 32  0  0  1  0  0  0  0  0999 V2000
   -6.2550    4.8000   -7.2740 N   0  0  0  0  0  0  0  0  0  0  0  0
   -5.4900    3.5290   -7.3640 C   0  0  0  0  0  0  0  0  0  0  0  0
   -5.5350    3.5030   -7.3590 C   0  0  0  0  0  0  0  0  0  0  0  0
   -5.1060    3.2030   -8.8020 C   0  0  0  0  0  0  0  0  0  0  0  0
   -4.4190    2.2050   -8.9850 O   0  0  0  0  0  0  0  0  0  0  0  0
   -6.2820    2.3990   -6.7690 C   0  0  2  0  0  0  0  0  0  0  0  0
   -6.3870    2.3960   -6.7900 C   0  0  0  0  0  0  0  0  0  0  0  0
   -6.2730    2.4800   -5.3610 O   0  0  0  0  0  0  0  0  0  0  0  0
   -5.5770    1.3620   -6.2550 O   0  0  0  0  0  0  0  0  0  0  0  0
  -14.2570    2.8500   -2.6020 N   0  0  0  0  0  0  0  0  0  0  0  0
  -13.1150    3.3860   -2.1510 C   0  0  0  0  0  0  0  0  0  0  0  0
  -12.1280    2.7030   -1.6150 N   0  0  0  0  0  0  0  0  0  0  0  0
  -11.0590    3.4980   -1.2190 N   0  0  0  0  0  0  0  0  0  0  0  0
  -11.2370    4.7630   -1.4630 C   0  0  0  0  0  0  0  0  0  0  0  0
  -10.0440    6.0110   -1.1320 S   0  0  0  0  0  0  0  0  0  0  0  0
   -8.8890    4.9590   -0.2140 C   0  0  0  0  0  0  0  0  0  0  0  0
   -8.1540    3.8750   -0.9590 C   0  0  0  0  0  0  0  0  0  0  0  0
   -7.5410    3.0360   -0.3060 O   0  0  0  0  0  0  0  0  0  0  0  0
   -8.1990    3.8300   -2.3040 N   0  0  0  0  0  0  0  0  0  0  0  0
   -7.4110    2.8620   -3.0830 C   0  0  1  0  0  0  0  0  0  0  0  0
   -8.0520    1.4560   -2.9670 C   0  0  0  0  0  0  0  0  0  0  0  0
   -9.0660    1.2980   -3.9990 N   0  0  0  0  0  0  0  0  0  0  0  0
   -8.9330    0.7610   -5.2030 C   0  0  0  0  0  0  0  0  0  0  0  0
  -10.0980    1.0130   -5.8470 C   0  0  0  0  0  0  0  0  0  0  0  0
  -10.3700    0.7550   -7.2260 C   0  0  0  0  0  0  0  0  0  0  0  0
   -9.4580    0.2490   -7.8580 O   0  0  0  0  0  0  0  0  0  0  0  0
  -11.4310    1.1320   -7.7260 O   0  5  0  0  0  0  0  0  0  0  0  0
  -10.9190    1.6750   -5.0020 N   0  0  0  0  0  0  0  0  0  0  0  0
  -10.2680    1.8910   -3.8850 N   0  0  0  0  0  0  0  0  0  0  0  0
   -7.0490    3.5220   -4.5910 B   0  5  0  0  0  0  0  0  0  0  0  0
   -8.2130    3.9800   -5.4720 O   0  0  0  0  0  0  0  0  0  0  0  0
   -5.9650    4.5020   -4.3490 O   0  0  0  0  0  0  0  0  0  0  0  0
  -12.7960    5.0920   -2.1760 S   0  0  0  0  0  0  0  0  0  0  0  0
  3  1  1  0  0  0  0
  3  6  1  0  0  0  0
  4  2  1  0  0  0  0
  5  4  2  0  0  0  0
  6  9  1  1  0  0  0
  6  8  1  0  0  0  0
  8 30  1  0  0  0  0
 10 11  1  0  0  0  0
 11 12  2  0  0  0  0
 11 33  1  0  0  0  0
 12 13  1  0  0  0  0
 13 14  2  0  0  0  0
 14 15  1  0  0  0  0
 14 33  1  0  0  0  0
 15 16  1  0  0  0  0
 16 17  1  0  0  0  0
 17 18  2  0  0  0  0
 17 19  1  0  0  0  0
 19 20  1  0  0  0  0
 20 21  1  6  0  0  0
 20 30  1  0  0  0  0
 21 22  1  0  0  0  0
 22 23  1  0  0  0  0
 22 29  1  0  0  0  0
 23 24  2  0  0  0  0
 24 25  1  0  0  0  0
 24 28  1  0  0  0  0
 25 26  2  0  0  0  0
 25 27  1  0  0  0  0
 28 29  2  0  0  0  0
 30 31  1  0  0  0  0
 30 32  1  0  0  0  0
M  CHG  2  27  -1  30  -1
M  END
>  <HEADER>
    HYDROLASE/INHIBITOR                     26-APR-22   7UTB              

>  <TITLE>
    KPC-2 CARBAPENEMASE IN COMPLEX WITH THE BORONIC ACID INHIBITOR MB_076 

>  <COMPND>
    MOL_ID: 1;                                                            
   2 MOLECULE: CARBAPENEM-HYDROLYZING BETA-LACTAMASE KPC;                 
   3 CHAIN: A;                                                            
   4 SYNONYM: CARBAPENEM-HYDROLYZING BETA-LACTAMASE KPC-1;                
   5 EC: 3.5.2.6;                                                         
   6 ENGINEERED: YES                                                      

>  <SOURCE>
    MOL_ID: 1;                                                            
   2 ORGANISM_SCIENTIFIC: KLEBSIELLA PNEUMONIAE;                          
   3 ORGANISM_TAXID: 573;                                                 
   4 GENE: BLA, KPC, KPC1;                                                
   5 EXPRESSION_SYSTEM: ESCHERICHIA COLI;                                 
   6 EXPRESSION_SYSTEM_TAXID: 562                                         

>  <KEYWDS>
    BETA-LACTAMASE, CARBAPENEMASE, INHIBITOR COMPLEX, HYDROLASE,          
   2 HYDROLASE-INHIBITOR COMPLEX                                          

>  <EXPDTA>
    X-RAY DIFFRACTION                                                     

>  <AUTHOR>
    F.VAN DEN AKKER,T.A.ALSENANI                                          

>  <REVDAT>
   3   08-FEB-23 7UTB    1       JRNL                                     
   2   18-JAN-23 7UTB    1       JRNL                                     
   1   14-DEC-22 7UTB    0                                                

>  <JRNL>
      AUTH   T.A.ALSENANI,M.M.RODRIGUEZ,B.GHIGLIONE,M.A.TARACILA,         
      AUTH 2 M.F.MOJICA,L.J.ROJAS,A.M.HUJER,G.GUTKIND,C.R.BETHEL,         
      AUTH 3 P.N.RATHER,M.L.INTROVIGNE,F.PRATI,E.CASELLI,P.POWER,         
      AUTH 4 F.VAN DEN AKKER,R.A.BONOMO                                   
      TITL   BORONIC ACID TRANSITION STATE INHIBITORS AS POTENT           
      TITL 2 INACTIVATORS OF KPC AND CTX-M BETA-LACTAMASES: BIOCHEMICAL   
      TITL 3 AND STRUCTURAL ANALYSES.                                     
      REF    ANTIMICROB.AGENTS CHEMOTHER.  V.  67 93022 2023              
      REFN                   ESSN 1098-6596                               
      PMID   36602311                                                     
      DOI    10.1128/AAC.00930-22                                         

>  <REMARK>
   2                                                                      
   2 RESOLUTION.    1.38 ANGSTROMS.                                       
   3                                                                      
   3 REFINEMENT.                                                          
   3   PROGRAM     : REFMAC 5.8.0258                                      
   3   AUTHORS     : MURSHUDOV,SKUBAK,LEBEDEV,PANNU,STEINER,              
   3               : NICHOLLS,WINN,LONG,VAGIN                             
   3                                                                      
   3    REFINEMENT TARGET : MAXIMUM LIKELIHOOD                            
   3                                                                      
   3  DATA USED IN REFINEMENT.                                            
   3   RESOLUTION RANGE HIGH (ANGSTROMS) : 1.38                           
   3   RESOLUTION RANGE LOW  (ANGSTROMS) : 28.04                          
   3   DATA CUTOFF            (SIGMA(F)) : 0.000                          
   3   COMPLETENESS FOR RANGE        (%) : 99.6                           
   3   NUMBER OF REFLECTIONS             : 49772                          
   3                                                                      
   3  FIT TO DATA USED IN REFINEMENT.                                     
   3   CROSS-VALIDATION METHOD          : THROUGHOUT                      
   3   FREE R VALUE TEST SET SELECTION  : RANDOM                          
   3   R VALUE     (WORKING + TEST SET) : 0.149                           
   3   R VALUE            (WORKING SET) : 0.148                           
   3   FREE R VALUE                     : 0.170                           
   3   FREE R VALUE TEST SET SIZE   (%) : 5.100                           
   3   FREE R VALUE TEST SET COUNT      : 2688                            
   3                                                                      
   3  FIT IN THE HIGHEST RESOLUTION BIN.                                  
   3   TOTAL NUMBER OF BINS USED           : 20                           
   3   BIN RESOLUTION RANGE HIGH       (A) : 1.38                         
   3   BIN RESOLUTION RANGE LOW        (A) : 1.42                         
   3   REFLECTION IN BIN     (WORKING SET) : 3448                         
   3   BIN COMPLETENESS (WORKING+TEST) (%) : 94.95                        
   3   BIN R VALUE           (WORKING SET) : 0.2310                       
   3   BIN FREE R VALUE SET COUNT          : 216                          
   3   BIN FREE R VALUE                    : 0.2530                       
   3                                                                      
   3  NUMBER OF NON-HYDROGEN ATOMS USED IN REFINEMENT.                    
   3   PROTEIN ATOMS            : 1960                                    
   3   NUCLEIC ACID ATOMS       : 0                                       
   3   HETEROGEN ATOMS          : 24                                      
   3   SOLVENT ATOMS            : 302                                     
   3                                                                      
   3  B VALUES.                                                           
   3   FROM WILSON PLOT           (A**2) : NULL                           
   3   MEAN B VALUE      (OVERALL, A**2) : 14.16                          
   3   OVERALL ANISOTROPIC B VALUE.                                       
   3    B11 (A**2) : 0.00000                                              
   3    B22 (A**2) : 0.00000                                              
   3    B33 (A**2) : 0.00000                                              
   3    B12 (A**2) : 0.00000                                              
   3    B13 (A**2) : 0.00000                                              
   3    B23 (A**2) : 0.00000                                              
   3                                                                      
   3  ESTIMATED OVERALL COORDINATE ERROR.                                 
   3   ESU BASED ON R VALUE                            (A): 0.050         
   3   ESU BASED ON FREE R VALUE                       (A): 0.052         
   3   ESU BASED ON MAXIMUM LIKELIHOOD                 (A): 0.034         
   3   ESU FOR B VALUES BASED ON MAXIMUM LIKELIHOOD (A**2): 0.860         
   3                                                                      
   3 CORRELATION COEFFICIENTS.                                            
   3   CORRELATION COEFFICIENT FO-FC      : 0.976                         
   3   CORRELATION COEFFICIENT FO-FC FREE : 0.967                         
   3                                                                      
   3  RMS DEVIATIONS FROM IDEAL VALUES        COUNT    RMS    WEIGHT      
   3   BOND LENGTHS REFINED ATOMS        (A):  2094 ; 0.013 ; 0.013       
   3   BOND LENGTHS OTHERS               (A):  1954 ; 0.001 ; 0.017       
   3   BOND ANGLES REFINED ATOMS   (DEGREES):  2868 ; 1.911 ; 1.642       
   3   BOND ANGLES OTHERS          (DEGREES):  4526 ; 1.621 ; 1.573       
   3   TORSION ANGLES, PERIOD 1    (DEGREES):   281 ; 6.561 ; 5.000       
   3   TORSION ANGLES, PERIOD 2    (DEGREES):   101 ;30.813 ;21.584       
   3   TORSION ANGLES, PERIOD 3    (DEGREES):   326 ;12.840 ;15.000       
   3   TORSION ANGLES, PERIOD 4    (DEGREES):    15 ;13.046 ;15.000       
   3   CHIRAL-CENTER RESTRAINTS       (A**3):   279 ; 0.092 ; 0.200       
   3   GENERAL PLANES REFINED ATOMS      (A):  2411 ; 0.011 ; 0.020       
   3   GENERAL PLANES OTHERS             (A):   442 ; 0.002 ; 0.020       
   3   NON-BONDED CONTACTS REFINED ATOMS (A):  NULL ;  NULL ;  NULL       
   3   NON-BONDED CONTACTS OTHERS        (A):  NULL ;  NULL ;  NULL       
   3   NON-BONDED TORSION REFINED ATOMS  (A):  NULL ;  NULL ;  NULL       
   3   NON-BONDED TORSION OTHERS         (A):  NULL ;  NULL ;  NULL       
   3   H-BOND (X...Y) REFINED ATOMS      (A):  NULL ;  NULL ;  NULL       
   3   H-BOND (X...Y) OTHERS             (A):  NULL ;  NULL ;  NULL       
   3   POTENTIAL METAL-ION REFINED ATOMS (A):  NULL ;  NULL ;  NULL       
   3   POTENTIAL METAL-ION OTHERS        (A):  NULL ;  NULL ;  NULL       
   3   SYMMETRY VDW REFINED ATOMS        (A):  NULL ;  NULL ;  NULL       
   3   SYMMETRY VDW OTHERS               (A):  NULL ;  NULL ;  NULL       
   3   SYMMETRY H-BOND REFINED ATOMS     (A):  NULL ;  NULL ;  NULL       
   3   SYMMETRY H-BOND OTHERS            (A):  NULL ;  NULL ;  NULL       
   3   SYMMETRY METAL-ION REFINED ATOMS  (A):  NULL ;  NULL ;  NULL       
   3   SYMMETRY METAL-ION OTHERS         (A):  NULL ;  NULL ;  NULL       
   3                                                                      
   3  ISOTROPIC THERMAL FACTOR RESTRAINTS.     COUNT   RMS    WEIGHT      
   3   MAIN-CHAIN BOND REFINED ATOMS  (A**2):  NULL ;  NULL ;  NULL       
   3   MAIN-CHAIN BOND OTHER ATOMS    (A**2):  NULL ;  NULL ;  NULL       
   3   MAIN-CHAIN ANGLE REFINED ATOMS (A**2):  NULL ;  NULL ;  NULL       
   3   MAIN-CHAIN ANGLE OTHER ATOMS   (A**2):  NULL ;  NULL ;  NULL       
   3   SIDE-CHAIN BOND REFINED ATOMS  (A**2):  NULL ;  NULL ;  NULL       
   3   SIDE-CHAIN BOND OTHER ATOMS    (A**2):  NULL ;  NULL ;  NULL       
   3   SIDE-CHAIN ANGLE REFINED ATOMS (A**2):  NULL ;  NULL ;  NULL       
   3   SIDE-CHAIN ANGLE OTHER ATOMS   (A**2):  NULL ;  NULL ;  NULL       
   3   LONG RANGE B REFINED ATOMS     (A**2):  NULL ;  NULL ;  NULL       
   3   LONG RANGE B OTHER ATOMS       (A**2):  NULL ;  NULL ;  NULL       
   3                                                                      
   3 ANISOTROPIC THERMAL FACTOR RESTRAINTS.    COUNT   RMS   WEIGHT       
   3   RIGID-BOND RESTRAINTS          (A**2):  NULL ;  NULL ;  NULL       
   3   SPHERICITY; FREE ATOMS         (A**2):  NULL ;  NULL ;  NULL       
   3   SPHERICITY; BONDED ATOMS       (A**2):  NULL ;  NULL ;  NULL       
   3                                                                      
   3  NCS RESTRAINTS STATISTICS                                           
   3   NUMBER OF DIFFERENT NCS GROUPS : NULL                              
   3                                                                      
   3  TLS DETAILS                                                         
   3   NUMBER OF TLS GROUPS  : NULL                                       
   3                                                                      
   3  BULK SOLVENT MODELLING.                                             
   3   METHOD USED : MASK                                                 
   3   PARAMETERS FOR MASK CALCULATION                                    
   3   VDW PROBE RADIUS   : 1.20                                          
   3   ION PROBE RADIUS   : 0.80                                          
   3   SHRINKAGE RADIUS   : 0.80                                          
   3                                                                      
   3  OTHER REFINEMENT REMARKS: HYDROGENS HAVE BEEN ADDED IN THE RIDING   
   3  POSITIONS U VALUES : REFINED INDIVIDUALLY                           
   4                                                                      
   4 7UTB COMPLIES WITH FORMAT V. 3.30, 13-JUL-11                         
 100                                                                      
 100 THIS ENTRY HAS BEEN PROCESSED BY RCSB ON 27-APR-22.                  
 100 THE DEPOSITION ID IS D_1000264863.                                   
 200                                                                      
 200 EXPERIMENTAL DETAILS                                                 
 200  EXPERIMENT TYPE                : X-RAY DIFFRACTION                  
 200  DATE OF DATA COLLECTION        : 16-DEC-20                          
 200  TEMPERATURE           (KELVIN) : 100                                
 200  PH                             : NULL                               
 200  NUMBER OF CRYSTALS USED        : 1                                  
 200                                                                      
 200  SYNCHROTRON              (Y/N) : Y                                  
 200  RADIATION SOURCE               : NSLS-II                            
 200  BEAMLINE                       : 17-ID-1                            
 200  X-RAY GENERATOR MODEL          : NULL                               
 200  MONOCHROMATIC OR LAUE    (M/L) : M                                  
 200  WAVELENGTH OR RANGE        (A) : 0.97933                            
 200  MONOCHROMATOR                  : NULL                               
 200  OPTICS                         : NULL                               
 200                                                                      
 200  DETECTOR TYPE                  : PIXEL                              
 200  DETECTOR MANUFACTURER          : DECTRIS EIGER X 9M                 
 200  INTENSITY-INTEGRATION SOFTWARE : XDS                                
 200  DATA SCALING SOFTWARE          : AIMLESS                            
 200                                                                      
 200  NUMBER OF UNIQUE REFLECTIONS   : 52526                              
 200  RESOLUTION RANGE HIGH      (A) : 1.380                              
 200  RESOLUTION RANGE LOW       (A) : 28.040                             
 200  REJECTION CRITERIA  (SIGMA(I)) : NULL                               
 200                                                                      
 200 OVERALL.                                                             
 200  COMPLETENESS FOR RANGE     (%) : 99.6                               
 200  DATA REDUNDANCY                : 6.600                              
 200  R MERGE                    (I) : 0.06800                            
 200  R SYM                      (I) : NULL                               
 200  <I/SIGMA(I)> FOR THE DATA SET  : 15.5000                            
 200                                                                      
 200 IN THE HIGHEST RESOLUTION SHELL.                                     
 200  HIGHEST RESOLUTION SHELL, RANGE HIGH (A) : 1.38                     
 200  HIGHEST RESOLUTION SHELL, RANGE LOW  (A) : 1.42                     
 200  COMPLETENESS FOR SHELL     (%) : NULL                               
 200  DATA REDUNDANCY IN SHELL       : NULL                               
 200  R MERGE FOR SHELL          (I) : 0.68300                            
 200  R SYM FOR SHELL            (I) : NULL                               
 200  <I/SIGMA(I)> FOR SHELL         : 2.200                              
 200                                                                      
 200 DIFFRACTION PROTOCOL: SINGLE WAVELENGTH                              
 200 METHOD USED TO DETERMINE THE STRUCTURE: MOLECULAR REPLACEMENT        
 200 SOFTWARE USED: PHASER                                                
 200 STARTING MODEL: 2OV5                                                 
 200                                                                      
 200 REMARK: NULL                                                         
 280                                                                      
 280 CRYSTAL                                                              
 280 SOLVENT CONTENT, VS   (%): 45.03                                     
 280 MATTHEWS COEFFICIENT, VM (ANGSTROMS**3/DA): 2.24                     
 280                                                                      
 280 CRYSTALLIZATION CONDITIONS: 100 MM CITRIC ACID PH 5.5, 100 MM        
 280  KSCN, 30 % PEG 6K AND 10 MM CDCL2, VAPOR DIFFUSION, SITTING DROP,   
 280  TEMPERATURE 293K                                                    
 290                                                                      
 290 CRYSTALLOGRAPHIC SYMMETRY                                            
 290 SYMMETRY OPERATORS FOR SPACE GROUP: P 21 21 21                       
 290                                                                      
 290      SYMOP   SYMMETRY                                                
 290     NNNMMM   OPERATOR                                                
 290       1555   X,Y,Z                                                   
 290       2555   -X+1/2,-Y,Z+1/2                                         
 290       3555   -X,Y+1/2,-Z+1/2                                         
 290       4555   X+1/2,-Y+1/2,-Z                                         
 290                                                                      
 290     WHERE NNN -> OPERATOR NUMBER                                     
 290           MMM -> TRANSLATION VECTOR                                  
 290                                                                      
 290 CRYSTALLOGRAPHIC SYMMETRY TRANSFORMATIONS                            
 290 THE FOLLOWING TRANSFORMATIONS OPERATE ON THE ATOM/HETATM             
 290 RECORDS IN THIS ENTRY TO PRODUCE CRYSTALLOGRAPHICALLY                
 290 RELATED MOLECULES.                                                   
 290   SMTRY1   1  1.000000  0.000000  0.000000        0.00000            
 290   SMTRY2   1  0.000000  1.000000  0.000000        0.00000            
 290   SMTRY3   1  0.000000  0.000000  1.000000        0.00000            
 290   SMTRY1   2 -1.000000  0.000000  0.000000       25.85800            
 290   SMTRY2   2  0.000000 -1.000000  0.000000        0.00000            
 290   SMTRY3   2  0.000000  0.000000  1.000000       36.57150            
 290   SMTRY1   3 -1.000000  0.000000  0.000000        0.00000            
 290   SMTRY2   3  0.000000  1.000000  0.000000       33.33650            
 290   SMTRY3   3  0.000000  0.000000 -1.000000       36.57150            
 290   SMTRY1   4  1.000000  0.000000  0.000000       25.85800            
 290   SMTRY2   4  0.000000 -1.000000  0.000000       33.33650            
 290   SMTRY3   4  0.000000  0.000000 -1.000000        0.00000            
 290                                                                      
 290 REMARK: NULL                                                         
 300                                                                      
 300 BIOMOLECULE: 1                                                       
 300 SEE REMARK 350 FOR THE AUTHOR PROVIDED AND/OR PROGRAM                
 300 GENERATED ASSEMBLY INFORMATION FOR THE STRUCTURE IN                  
 300 THIS ENTRY. THE REMARK MAY ALSO PROVIDE INFORMATION ON               
 300 BURIED SURFACE AREA.                                                 
 350                                                                      
 350 COORDINATES FOR A COMPLETE MULTIMER REPRESENTING THE KNOWN           
 350 BIOLOGICALLY SIGNIFICANT OLIGOMERIZATION STATE OF THE                
 350 MOLECULE CAN BE GENERATED BY APPLYING BIOMT TRANSFORMATIONS          
 350 GIVEN BELOW.  BOTH NON-CRYSTALLOGRAPHIC AND                          
 350 CRYSTALLOGRAPHIC OPERATIONS ARE GIVEN.                               
 350                                                                      
 350 BIOMOLECULE: 1                                                       
 350 AUTHOR DETERMINED BIOLOGICAL UNIT: MONOMERIC                         
 350 SOFTWARE DETERMINED QUATERNARY STRUCTURE: MONOMERIC                  
 350 SOFTWARE USED: PISA                                                  
 350 APPLY THE FOLLOWING TO CHAINS: A                                     
 350   BIOMT1   1  1.000000  0.000000  0.000000        0.00000            
 350   BIOMT2   1  0.000000  1.000000  0.000000        0.00000            
 350   BIOMT3   1  0.000000  0.000000  1.000000        0.00000            
 465                                                                      
 465 MISSING RESIDUES                                                     
 465 THE FOLLOWING RESIDUES WERE NOT LOCATED IN THE                       
 465 EXPERIMENT. (M=MODEL NUMBER; RES=RESIDUE NAME; C=CHAIN               
 465 IDENTIFIER; SSSEQ=SEQUENCE NUMBER; I=INSERTION CODE.)                
 465                                                                      
 465   M RES C SSSEQI                                                     
 465     ALA A    24                                                      
 465     LEU A    25                                                      
 465     THR A    26                                                      
 465     GLY A   291                                                      
 500                                                                      
 500 GEOMETRY AND STEREOCHEMISTRY                                         
 500 SUBTOPIC: CLOSE CONTACTS IN SAME ASYMMETRIC UNIT                     
 500                                                                      
 500 THE FOLLOWING ATOMS ARE IN CLOSE CONTACT.                            
 500                                                                      
 500  ATM1  RES C  SSEQI   ATM2  RES C  SSEQI           DISTANCE          
 500   OD1  ASP A   271     O    HOH A   401              1.83            
 500   OD2  ASP A   271     O    HOH A   402              1.91            
 500                                                                      
 500 REMARK: NULL                                                         
 500                                                                      
 500 GEOMETRY AND STEREOCHEMISTRY                                         
 500 SUBTOPIC: COVALENT BOND ANGLES                                       
 500                                                                      
 500 THE STEREOCHEMICAL PARAMETERS OF THE FOLLOWING RESIDUES              
 500 HAVE VALUES WHICH DEVIATE FROM EXPECTED VALUES BY MORE               
 500 THAN 6*RMSD (M=MODEL NUMBER; RES=RESIDUE NAME; C=CHAIN               
 500 IDENTIFIER; SSEQ=SEQUENCE NUMBER; I=INSERTION CODE).                 
 500                                                                      
 500 STANDARD TABLE:                                                      
 500 FORMAT: (10X,I3,1X,A3,1X,A1,I4,A1,3(1X,A4,2X),12X,F5.1)              
 500                                                                      
 500 EXPECTED VALUES PROTEIN: ENGH AND HUBER, 1999                        
 500 EXPECTED VALUES NUCLEIC ACID: CLOWNEY ET AL 1996                     
 500                                                                      
 500  M RES CSSEQI ATM1   ATM2   ATM3                                     
 500    MET A 117   CG  -  SD  -  CE  ANGL. DEV. = -10.6 DEGREES          
 500                                                                      
 500 REMARK: NULL                                                         
 500                                                                      
 500 GEOMETRY AND STEREOCHEMISTRY                                         
 500 SUBTOPIC: TORSION ANGLES                                             
 500                                                                      
 500 TORSION ANGLES OUTSIDE THE EXPECTED RAMACHANDRAN REGIONS:            
 500 (M=MODEL NUMBER; RES=RESIDUE NAME; C=CHAIN IDENTIFIER;               
 500 SSEQ=SEQUENCE NUMBER; I=INSERTION CODE).                             
 500                                                                      
 500 STANDARD TABLE:                                                      
 500 FORMAT:(10X,I3,1X,A3,1X,A1,I4,A1,4X,F7.2,3X,F7.2)                    
 500                                                                      
 500 EXPECTED VALUES: GJ KLEYWEGT AND TA JONES (1996). PHI/PSI-           
 500 CHOLOGY: RAMACHANDRAN REVISITED. STRUCTURE 4, 1395 - 1400            
 500                                                                      
 500  M RES CSSEQI        PSI       PHI                                   
 500    CYS A  69     -143.49     52.17                                   
 500    ARG A  96       76.12   -100.36                                   
 500    ARG A 220     -125.39   -115.41                                   
 500                                                                      
 500 REMARK: NULL                                                         

>  <DBREF>
 7UTB A   24   291  UNP    Q9F663   BLKPC_KLEPN     24    289             

>  <SEQRES>
   1 A  266  ALA LEU THR ASN LEU VAL ALA GLU PRO PHE ALA LYS LEU          
   2 A  266  GLU GLN ASP PHE GLY GLY SER ILE GLY VAL TYR ALA MET          
   3 A  266  ASP THR GLY SER GLY ALA THR VAL SER TYR ARG ALA GLU          
   4 A  266  GLU ARG PHE PRO LEU CYS SER SER PHE LYS GLY PHE LEU          
   5 A  266  ALA ALA ALA VAL LEU ALA ARG SER GLN GLN GLN ALA GLY          
   6 A  266  LEU LEU ASP THR PRO ILE ARG TYR GLY LYS ASN ALA LEU          
   7 A  266  VAL PRO TRP SER PRO ILE SER GLU LYS TYR LEU THR THR          
   8 A  266  GLY MET THR VAL ALA GLU LEU SER ALA ALA ALA VAL GLN          
   9 A  266  TYR SER ASP ASN ALA ALA ALA ASN LEU LEU LEU LYS GLU          
  10 A  266  LEU GLY GLY PRO ALA GLY LEU THR ALA PHE MET ARG SER          
  11 A  266  ILE GLY ASP THR THR PHE ARG LEU ASP ARG TRP GLU LEU          
  12 A  266  GLU LEU ASN SER ALA ILE PRO GLY ASP ALA ARG ASP THR          
  13 A  266  SER SER PRO ARG ALA VAL THR GLU SER LEU GLN LYS LEU          
  14 A  266  THR LEU GLY SER ALA LEU ALA ALA PRO GLN ARG GLN GLN          
  15 A  266  PHE VAL ASP TRP LEU LYS GLY ASN THR THR GLY ASN HIS          
  16 A  266  ARG ILE ARG ALA ALA VAL PRO ALA ASP TRP ALA VAL GLY          
  17 A  266  ASP LYS THR GLY THR CYS GLY VAL TYR GLY THR ALA ASN          
  18 A  266  ASP TYR ALA VAL VAL TRP PRO THR GLY ARG ALA PRO ILE          
  19 A  266  VAL LEU ALA VAL TYR THR ARG ALA PRO ASN LYS ASP ASP          
  20 A  266  LYS HIS SER GLU ALA VAL ILE ALA ALA ALA ALA ARG LEU          
  21 A  266  ALA LEU GLU GLY LEU GLY                                      

>  <HET>
 OC0  A 301      24                                                       

>  <HETNAM>
     OC0 [(1~{R})-1-[2-[(5-AZANYL-1,3,4-THIADIAZOL-2-YL)                  
   2 OC0  SULFANYL]ETHANOYLAMINO]-2-(4-CARBOXY-1,2,3-TRIAZOL-1-           
   3 OC0  YL)ETHYL]-$L^{3}-OXIDANYL-BIS(OXIDANYL)BORON                    

>  <FORMUL>
   2  OC0    C9 H13 B N7 O6 S2 1-                                         
   3  HOH   *302(H2 O)                                                    

>  <HELIX>
   1 AA1 ALA A   30  GLY A   41  1                                  12    
   2 AA2 SER A   71  GLN A   87  1                                  17    
   3 AA3 GLY A   98  LEU A  102  5                                   5    
   4 AA4 SER A  106  TYR A  112  1                                   7    
   5 AA5 VAL A  119  TYR A  129  1                                  11    
   6 AA6 ASP A  131  LEU A  142  1                                  12    
   7 AA7 GLY A  143  ILE A  155  1                                  13    
   8 AA8 LEU A  167  SER A  171  5                                   5    
   9 AA9 SER A  182  LEU A  195  1                                  14    
  10 AB1 ALA A  200  GLY A  213  1                                  14    
  11 AB2 ARG A  220  VAL A  225  1                                   6    
  12 AB3 GLY A  239  GLY A  242  5                                   4    
  13 AB4 SER A  275  LEU A  290  1                                  16    

>  <SHEET>
   1 AA1 5 THR A  56  TYR A  60  0                                        
   2 AA1 5 SER A  43  ASP A  50 -1  N  VAL A  46   O  TYR A  60           
   3 AA1 5 ILE A 259  ARG A 266 -1  O  ARG A 266   N  SER A  43           
   4 AA1 5 ALA A 244  TRP A 251 -1  N  VAL A 250   O  ILE A 259           
   5 AA1 5 ALA A 230  THR A 237 -1  N  ALA A 230   O  TRP A 251           
   1 AA2 2 PHE A  66  PRO A  67  0                                        
   2 AA2 2 THR A 180  SER A 181 -1  O  SER A 181   N  PHE A  66           
   1 AA3 2 PRO A  94  ILE A  95  0                                        
   2 AA3 2 MET A 117  THR A 118 -1  O  MET A 117   N  ILE A  95           

>  <SSBOND>
   1 CYS A   69    CYS A  238                          1555   1555  2.15  

>  <LINK>
       OG ASER A  70                 B1  OC0 A 301     1555   1555  1.51  

>  <CISPEP>
   1 GLU A  166    LEU A  167          0         3.68                     
   2 GLU A  166    LEU A  167          0         4.62                     

>  <ORIGX1>
      1.000000  0.000000  0.000000        0.00000                         

>  <ORIGX2>
      0.000000  1.000000  0.000000        0.00000                         

>  <ORIGX3>
      0.000000  0.000000  1.000000        0.00000                         

>  <SCALE1>
      0.019336  0.000000  0.000000        0.00000                         

>  <SCALE2>
      0.000000  0.014999  0.000000        0.00000                         

>  <SCALE3>
      0.000000  0.000000  0.013672        0.00000                         

>  <MASTER>
      298    0    1   13    9    0    0    6 2286    1   27   21          

$$$$
