start_structures/Ligand_Substrate/Ligand_Complex_Stripped/OZ0_8CUM.pdb
 OpenBabel08222315213D

 40 40  0  0  1  0  0  0  0  0999 V2000
   27.1170    1.9330    7.0950 N   0  0  0  0  0  0  0  0  0  0  0  0
   26.5180    1.4570    8.3460 C   0  0  2  0  0  0  0  0  0  0  0  0
   25.6150    2.4860    9.0200 C   0  0  0  0  0  0  0  0  0  0  0  0
   24.9560    2.1560   10.0150 O   0  0  0  0  0  0  0  0  0  0  0  0
   27.6320    0.9830    9.2970 C   0  0  0  0  0  0  0  0  0  0  0  0
   28.4070   -0.0850    8.7000 O   0  0  0  0  0  0  0  0  0  0  0  0
   33.6500    0.0290    9.7990 C   0  0  0  0  0  0  0  0  0  0  0  0
   32.8680    1.8400   11.3850 C   0  0  0  0  0  0  0  0  0  0  0  0
   33.2940   -0.5840   12.1040 C   0  0  0  0  0  0  0  0  0  0  0  0
   29.8060    0.0670    8.2990 B   0  0  0  0  0  0  0  0  0  0  0  0
   33.6180   -1.9090   11.8080 C   0  0  0  0  0  0  0  0  0  0  0  0
   33.9500   -2.2570   10.4950 C   0  0  0  0  0  0  0  0  0  0  0  0
   33.9390   -1.2780    9.4950 C   0  0  0  0  0  0  0  0  0  0  0  0
   34.3640   -1.6210    8.0630 C   0  0  0  0  0  0  0  0  0  0  0  0
   30.2680   -1.3910    7.7230 C   0  0  1  0  0  0  0  0  0  0  0  0
   29.5650   -1.7890    6.3980 C   0  0  0  0  0  0  0  0  0  0  0  0
   29.8370   -0.7490    5.2840 C   0  0  0  0  0  0  0  0  0  0  0  0
   33.3000    0.3830   11.0940 C   0  0  0  0  0  0  0  0  0  0  0  0
   31.6790   -0.9270    7.5080 N   0  0  0  0  0  0  0  0  0  0  0  0
   29.8510    1.1460    7.4340 O   0  0  0  0  0  0  0  0  0  0  0  0
   30.3600    0.4380    9.4940 O   0  0  0  0  0  0  0  0  0  0  0  0
   32.4560   -3.4720    7.6170 O   0  0  0  0  0  0  0  0  0  0  0  0
   33.2460   -2.3220    5.7650 O   0  0  0  0  0  0  0  0  0  0  0  0
   32.0550    2.4490   10.5900 O   0  0  0  0  0  0  0  0  0  0  0  0
   33.2150    2.3700   12.4610 O   0  5  0  0  0  0  0  0  0  0  0  0
   32.8950   -2.1430    7.1750 S   0  0  0  0  0  0  0  0  0  0  0  0
   33.6960    0.7900    9.0230 H   0  0  0  0  0  0  0  0  0  0  0  0
   33.0350   -0.3030   13.1230 H   0  0  0  0  0  0  0  0  0  0  0  0
   33.6120   -2.6640   12.5920 H   0  0  0  0  0  0  0  0  0  0  0  0
   34.2160   -3.2840   10.2530 H   0  0  0  0  0  0  0  0  0  0  0  0
   34.7970   -0.7440    7.5830 H   0  0  0  0  0  0  0  0  0  0  0  0
   35.0970   -2.4260    8.0750 H   0  0  0  0  0  0  0  0  0  0  0  0
   29.9380   -2.7600    6.0760 H   0  0  0  0  0  0  0  0  0  0  0  0
   28.4910   -1.8510    6.5710 H   0  0  0  0  0  0  0  0  0  0  0  0
   30.6860   -0.1300    5.5660 H   0  0  0  0  0  0  0  0  0  0  0  0
   28.9580   -0.1210    5.1520 H   0  0  0  0  0  0  0  0  0  0  0  0
   30.0570   -1.2650    4.3520 H   0  0  0  0  0  0  0  0  0  0  0  0
   31.9180    0.0490    7.5530 H   0  0  0  0  0  0  0  0  0  0  0  0
   29.6670    1.9350    7.9240 H   0  0  0  0  0  0  0  0  0  0  0  0
   30.4390   -0.3300   10.0420 H   0  0  0  0  0  0  0  0  0  0  0  0
  2  1  1  6  0  0  0
  2  3  1  0  0  0  0
  2  5  1  0  0  0  0
  3  4  2  0  0  0  0
  6 10  1  0  0  0  0
  6  5  1  0  0  0  0
  7 13  2  0  0  0  0
  7 18  1  0  0  0  0
  7 27  1  0  0  0  0
  8 18  1  0  0  0  0
  8 24  2  0  0  0  0
  8 25  1  0  0  0  0
  9 11  1  0  0  0  0
  9 18  2  0  0  0  0
  9 28  1  0  0  0  0
 10 15  1  0  0  0  0
 10 20  1  0  0  0  0
 10 21  1  0  0  0  0
 11 12  2  0  0  0  0
 11 29  1  0  0  0  0
 12 13  1  0  0  0  0
 12 30  1  0  0  0  0
 13 14  1  0  0  0  0
 14 26  1  0  0  0  0
 14 31  1  0  0  0  0
 14 32  1  0  0  0  0
 15 16  1  6  0  0  0
 15 19  1  0  0  0  0
 16 17  1  0  0  0  0
 16 33  1  0  0  0  0
 16 34  1  0  0  0  0
 17 35  1  0  0  0  0
 17 36  1  0  0  0  0
 17 37  1  0  0  0  0
 19 26  1  0  0  0  0
 19 38  1  0  0  0  0
 20 39  1  0  0  0  0
 21 40  1  0  0  0  0
 22 26  2  0  0  0  0
 23 26  2  0  0  0  0
M  CHG  1  25  -1
M  END
>  <HEADER>
    HYDROLASE/INHIBITOR                     17-MAY-22   8CUM              

>  <TITLE>
    X-RAY CRYSTAL STRUCTURE OF OXA-24/40 IN COMPLEX WITH                  
   2 SULFONAMIDOBORONIC ACID 6D                                           

>  <COMPND>
    MOL_ID: 1;                                                            
   2 MOLECULE: BETA-LACTAMASE;                                            
   3 CHAIN: A;                                                            
   4 SYNONYM: CARBAPENEM-HYDROLYZING BETA-LACTAMASE OXA-40,CARBAPENEM-    
   5 HYDROLYZING CLASS D BETA-LACTAMASE OXA-24,CARBAPENEM-HYDROLYZING     
   6 OXACILLINASE,CARBAPENEM-HYDROLYZING OXACILLINASE OXA-40,CARBAPENEMASE
   7 OXA-24,CLASS D BETA-LACTAMASE OXA-40,OXA-24 CLASS D BETA-LACTAMASE,  
   8 OXA24 B-LACTAMASE,OXA40;                                             
   9 EC: 3.5.2.6;                                                         
  10 ENGINEERED: YES                                                      

>  <SOURCE>
    MOL_ID: 1;                                                            
   2 ORGANISM_SCIENTIFIC: ACINETOBACTER BAUMANNII;                        
   3 ORGANISM_TAXID: 470;                                                 
   4 GENE: BLAOXA-33, BLA-OXA-40, BLAOXA-24, BLAOXA-40, OXA-24, OXA40,    
   5 SI89_16690;                                                          
   6 EXPRESSION_SYSTEM: ESCHERICHIA COLI BL21(DE3);                       
   7 EXPRESSION_SYSTEM_TAXID: 469008                                      

>  <KEYWDS>
    CARBAPENEMASE, INHIBITOR, BATSI, HYDROLASE, HYDROLASE-INHIBITOR       
   2 COMPLEX                                                              

>  <EXPDTA>
    X-RAY DIFFRACTION                                                     

>  <AUTHOR>
    M.C.FERNANDO,B.J.WALLAR,R.A.POWERS                                    

>  <REVDAT>
   1   05-APR-23 8CUM    0                                                

>  <JRNL>
      AUTH   L.M.INTROVIGNE,T.J.BEARDSLEY,M.C.FERNANDO,D.A.LEONARD,       
      AUTH 2 B.J.WALLAR,S.D.RUDIN,M.A.TARACILA,P.N.RATHER,J.M.COLQUHOUN,  
      AUTH 3 S.SONG,F.FINI,K.M.HUJER,A.M.HUJER,F.PRATI,R.A.POWERS,        
      AUTH 4 R.A.BONOMO,E.CASELLI                                         
      TITL   SULFONAMIDOBORONIC ACIDS AS "CROSS-CLASS" INHIBITORS OF AN   
      TITL 2 EXPANDED-SPECTRUM CLASS C CEPHALOSPORINASE, ADC-33, AND A    
      TITL 3 CLASS D CARBAPENEMASE, OXA-24/40: STRATEGIC COMPOUND DESIGN  
      TITL 4 TO COMBAT RESISTANCE IN ACINETOBACTER BAUMANNII              
      REF    ANTIBIOTICS                   V.  12   644 2023              
      REFN                   ESSN 2079-6382                               
      DOI    10.3390/ANTIBIOTICS12040644                                  

>  <REMARK>
   2                                                                      
   2 RESOLUTION.    1.49 ANGSTROMS.                                       
   3                                                                      
   3 REFINEMENT.                                                          
   3   PROGRAM     : PHENIX 1.19.2_4158                                   
   3   AUTHORS     : PAUL ADAMS,PAVEL AFONINE,VINCENT CHEN,IAN            
   3               : DAVIS,KRESHNA GOPAL,RALF GROSSE-KUNSTLEVE,           
   3               : LI-WEI HUNG,ROBERT IMMORMINO,TOM IOERGER,            
   3               : AIRLIE MCCOY,ERIK MCKEE,NIGEL MORIARTY,              
   3               : REETAL PAI,RANDY READ,JANE RICHARDSON,               
   3               : DAVID RICHARDSON,TOD ROMO,JIM SACCHETTINI,           
   3               : NICHOLAS SAUTER,JACOB SMITH,LAURENT                  
   3               : STORONI,TOM TERWILLIGER,PETER ZWART                  
   3                                                                      
   3    REFINEMENT TARGET : ML                                            
   3                                                                      
   3  DATA USED IN REFINEMENT.                                            
   3   RESOLUTION RANGE HIGH (ANGSTROMS) : 1.49                           
   3   RESOLUTION RANGE LOW  (ANGSTROMS) : 51.09                          
   3   MIN(FOBS/SIGMA_FOBS)              : 1.340                          
   3   COMPLETENESS FOR RANGE        (%) : 99.8                           
   3   NUMBER OF REFLECTIONS             : 74259                          
   3                                                                      
   3  FIT TO DATA USED IN REFINEMENT.                                     
   3   R VALUE     (WORKING + TEST SET) : 0.190                           
   3   R VALUE            (WORKING SET) : 0.189                           
   3   FREE R VALUE                     : 0.207                           
   3   FREE R VALUE TEST SET SIZE   (%) : 4.970                           
   3   FREE R VALUE TEST SET COUNT      : 3689                            
   3                                                                      
   3  FIT TO DATA USED IN REFINEMENT (IN BINS).                           
   3   BIN  RESOLUTION RANGE  COMPL.    NWORK NFREE   RWORK  RFREE        
   3     1 51.0900 -  4.4100    1.00     2967   154  0.1833 0.1996        
   3     2  4.4100 -  3.5000    1.00     2788   157  0.1387 0.1520        
   3     3  3.5000 -  3.0600    1.00     2785   153  0.1601 0.1705        
   3     4  3.0600 -  2.7800    1.00     2761   132  0.1811 0.2075        
   3     5  2.7800 -  2.5800    1.00     2729   172  0.1816 0.2075        
   3     6  2.5800 -  2.4300    1.00     2738   135  0.1787 0.2029        
   3     7  2.4300 -  2.3100    1.00     2715   153  0.1749 0.1825        
   3     8  2.3100 -  2.2100    1.00     2746   134  0.1797 0.2137        
   3     9  2.2100 -  2.1200    1.00     2698   136  0.1780 0.1893        
   3    10  2.1200 -  2.0500    1.00     2707   139  0.1732 0.2159        
   3    11  2.0500 -  1.9800    1.00     2722   145  0.1833 0.2099        
   3    12  1.9800 -  1.9300    1.00     2682   143  0.1905 0.1973        
   3    13  1.9300 -  1.8800    1.00     2708   137  0.1991 0.2242        
   3    14  1.8800 -  1.8300    1.00     2694   152  0.2163 0.2731        
   3    15  1.8300 -  1.7900    1.00     2692   138  0.2354 0.2803        
   3    16  1.7900 -  1.7500    1.00     2686   138  0.2271 0.2539        
   3    17  1.7500 -  1.7200    1.00     2706   139  0.2424 0.2267        
   3    18  1.7200 -  1.6800    1.00     2666   147  0.2463 0.2481        
   3    19  1.6800 -  1.6500    1.00     2673   147  0.2580 0.2704        
   3    20  1.6500 -  1.6300    1.00     2696   113  0.2706 0.3086        
   3    21  1.6300 -  1.6000    1.00     2671   144  0.2765 0.2999        
   3    22  1.6000 -  1.5800    1.00     2656   152  0.3093 0.3069        
   3    23  1.5800 -  1.5500    0.99     2690   121  0.3161 0.3117        
   3    24  1.5500 -  1.5300    1.00     2672   141  0.3587 0.3649        
   3    25  1.5300 -  1.5100    0.99     2682   130  0.3746 0.4317        
   3    26  1.5100 -  1.4900    0.98     2640   137  0.4085 0.4311        
   3                                                                      
   3  BULK SOLVENT MODELLING.                                             
   3   METHOD USED        : FLAT BULK SOLVENT MODEL                       
   3   SOLVENT RADIUS     : 1.11                                          
   3   SHRINKAGE RADIUS   : 0.90                                          
   3   K_SOL              : NULL                                          
   3   B_SOL              : NULL                                          
   3                                                                      
   3  ERROR ESTIMATES.                                                    
   3   COORDINATE ERROR (MAXIMUM-LIKELIHOOD BASED)     : 0.190            
   3   PHASE ERROR (DEGREES, MAXIMUM-LIKELIHOOD BASED) : 24.350           
   3                                                                      
   3  B VALUES.                                                           
   3   FROM WILSON PLOT           (A**2) : 19.63                          
   3   MEAN B VALUE      (OVERALL, A**2) : 25.99                          
   3   OVERALL ANISOTROPIC B VALUE.                                       
   3    B11 (A**2) : NULL                                                 
   3    B22 (A**2) : NULL                                                 
   3    B33 (A**2) : NULL                                                 
   3    B12 (A**2) : NULL                                                 
   3    B13 (A**2) : NULL                                                 
   3    B23 (A**2) : NULL                                                 
   3                                                                      
   3  TWINNING INFORMATION.                                               
   3   FRACTION: NULL                                                     
   3   OPERATOR: NULL                                                     
   3                                                                      
   3  DEVIATIONS FROM IDEAL VALUES.                                       
   3                 RMSD          COUNT                                  
   3   BOND      :   NULL           NULL                                  
   3   ANGLE     :   NULL           NULL                                  
   3   CHIRALITY :   NULL           NULL                                  
   3   PLANARITY :   NULL           NULL                                  
   3   DIHEDRAL  :   NULL           NULL                                  
   3                                                                      
   3  TLS DETAILS                                                         
   3   NUMBER OF TLS GROUPS  : NULL                                       
   3                                                                      
   3  NCS DETAILS                                                         
   3   NUMBER OF NCS GROUPS : NULL                                        
   3                                                                      
   3  OTHER REFINEMENT REMARKS: NULL                                      
   4                                                                      
   4 8CUM COMPLIES WITH FORMAT V. 3.30, 13-JUL-11                         
 100                                                                      
 100 THIS ENTRY HAS BEEN PROCESSED BY RCSB ON 19-MAY-22.                  
 100 THE DEPOSITION ID IS D_1000265306.                                   
 200                                                                      
 200 EXPERIMENTAL DETAILS                                                 
 200  EXPERIMENT TYPE                : X-RAY DIFFRACTION                  
 200  DATE OF DATA COLLECTION        : 13-NOV-20                          
 200  TEMPERATURE           (KELVIN) : 100                                
 200  PH                             : NULL                               
 200  NUMBER OF CRYSTALS USED        : 1                                  
 200                                                                      
 200  SYNCHROTRON              (Y/N) : Y                                  
 200  RADIATION SOURCE               : APS                                
 200  BEAMLINE                       : 21-ID-F                            
 200  X-RAY GENERATOR MODEL          : NULL                               
 200  MONOCHROMATIC OR LAUE    (M/L) : M                                  
 200  WAVELENGTH OR RANGE        (A) : 0.9787                             
 200  MONOCHROMATOR                  : NULL                               
 200  OPTICS                         : NULL                               
 200                                                                      
 200  DETECTOR TYPE                  : CCD                                
 200  DETECTOR MANUFACTURER          : RAYONIX MX-300                     
 200  INTENSITY-INTEGRATION SOFTWARE : XDS                                
 200  DATA SCALING SOFTWARE          : AIMLESS                            
 200                                                                      
 200  NUMBER OF UNIQUE REFLECTIONS   : 74330                              
 200  RESOLUTION RANGE HIGH      (A) : 1.490                              
 200  RESOLUTION RANGE LOW       (A) : 55.260                             
 200  REJECTION CRITERIA  (SIGMA(I)) : NULL                               
 200                                                                      
 200 OVERALL.                                                             
 200  COMPLETENESS FOR RANGE     (%) : 99.9                               
 200  DATA REDUNDANCY                : 8.000                              
 200  R MERGE                    (I) : 0.09300                            
 200  R SYM                      (I) : NULL                               
 200  <I/SIGMA(I)> FOR THE DATA SET  : 12.6000                            
 200                                                                      
 200 IN THE HIGHEST RESOLUTION SHELL.                                     
 200  HIGHEST RESOLUTION SHELL, RANGE HIGH (A) : 1.49                     
 200  HIGHEST RESOLUTION SHELL, RANGE LOW  (A) : 1.53                     
 200  COMPLETENESS FOR SHELL     (%) : 99.2                               
 200  DATA REDUNDANCY IN SHELL       : 7.90                               
 200  R MERGE FOR SHELL          (I) : 2.25100                            
 200  R SYM FOR SHELL            (I) : NULL                               
 200  <I/SIGMA(I)> FOR SHELL         : NULL                               
 200                                                                      
 200 DIFFRACTION PROTOCOL: SINGLE WAVELENGTH                              
 200 METHOD USED TO DETERMINE THE STRUCTURE: MOLECULAR REPLACEMENT        
 200 SOFTWARE USED: PHASER                                                
 200 STARTING MODEL: 3PAE                                                 
 200                                                                      
 200 REMARK: NULL                                                         
 280                                                                      
 280 CRYSTAL                                                              
 280 SOLVENT CONTENT, VS   (%): 69.55                                     
 280 MATTHEWS COEFFICIENT, VM (ANGSTROMS**3/DA): 4.04                     
 280                                                                      
 280 CRYSTALLIZATION CONDITIONS: 0.1 M HEPES SODIUM PH 7.5 2% PEG 400     
 280  2.0 M AMMONIUM SULFATE, VAPOR DIFFUSION, HANGING DROP,              
 280  TEMPERATURE 298K                                                    
 290                                                                      
 290 CRYSTALLOGRAPHIC SYMMETRY                                            
 290 SYMMETRY OPERATORS FOR SPACE GROUP: P 41 21 2                        
 290                                                                      
 290      SYMOP   SYMMETRY                                                
 290     NNNMMM   OPERATOR                                                
 290       1555   X,Y,Z                                                   
 290       2555   -X,-Y,Z+1/2                                             
 290       3555   -Y+1/2,X+1/2,Z+1/4                                      
 290       4555   Y+1/2,-X+1/2,Z+3/4                                      
 290       5555   -X+1/2,Y+1/2,-Z+1/4                                     
 290       6555   X+1/2,-Y+1/2,-Z+3/4                                     
 290       7555   Y,X,-Z                                                  
 290       8555   -Y,-X,-Z+1/2                                            
 290                                                                      
 290     WHERE NNN -> OPERATOR NUMBER                                     
 290           MMM -> TRANSLATION VECTOR                                  
 290                                                                      
 290 CRYSTALLOGRAPHIC SYMMETRY TRANSFORMATIONS                            
 290 THE FOLLOWING TRANSFORMATIONS OPERATE ON THE ATOM/HETATM             
 290 RECORDS IN THIS ENTRY TO PRODUCE CRYSTALLOGRAPHICALLY                
 290 RELATED MOLECULES.                                                   
 290   SMTRY1   1  1.000000  0.000000  0.000000        0.00000            
 290   SMTRY2   1  0.000000  1.000000  0.000000        0.00000            
 290   SMTRY3   1  0.000000  0.000000  1.000000        0.00000            
 290   SMTRY1   2 -1.000000  0.000000  0.000000        0.00000            
 290   SMTRY2   2  0.000000 -1.000000  0.000000        0.00000            
 290   SMTRY3   2  0.000000  0.000000  1.000000       42.88000            
 290   SMTRY1   3  0.000000 -1.000000  0.000000       51.09500            
 290   SMTRY2   3  1.000000  0.000000  0.000000       51.09500            
 290   SMTRY3   3  0.000000  0.000000  1.000000       21.44000            
 290   SMTRY1   4  0.000000  1.000000  0.000000       51.09500            
 290   SMTRY2   4 -1.000000  0.000000  0.000000       51.09500            
 290   SMTRY3   4  0.000000  0.000000  1.000000       64.32000            
 290   SMTRY1   5 -1.000000  0.000000  0.000000       51.09500            
 290   SMTRY2   5  0.000000  1.000000  0.000000       51.09500            
 290   SMTRY3   5  0.000000  0.000000 -1.000000       21.44000            
 290   SMTRY1   6  1.000000  0.000000  0.000000       51.09500            
 290   SMTRY2   6  0.000000 -1.000000  0.000000       51.09500            
 290   SMTRY3   6  0.000000  0.000000 -1.000000       64.32000            
 290   SMTRY1   7  0.000000  1.000000  0.000000        0.00000            
 290   SMTRY2   7  1.000000  0.000000  0.000000        0.00000            
 290   SMTRY3   7  0.000000  0.000000 -1.000000        0.00000            
 290   SMTRY1   8  0.000000 -1.000000  0.000000        0.00000            
 290   SMTRY2   8 -1.000000  0.000000  0.000000        0.00000            
 290   SMTRY3   8  0.000000  0.000000 -1.000000       42.88000            
 290                                                                      
 290 REMARK: NULL                                                         
 300                                                                      
 300 BIOMOLECULE: 1                                                       
 300 SEE REMARK 350 FOR THE AUTHOR PROVIDED AND/OR PROGRAM                
 300 GENERATED ASSEMBLY INFORMATION FOR THE STRUCTURE IN                  
 300 THIS ENTRY. THE REMARK MAY ALSO PROVIDE INFORMATION ON               
 300 BURIED SURFACE AREA.                                                 
 350                                                                      
 350 COORDINATES FOR A COMPLETE MULTIMER REPRESENTING THE KNOWN           
 350 BIOLOGICALLY SIGNIFICANT OLIGOMERIZATION STATE OF THE                
 350 MOLECULE CAN BE GENERATED BY APPLYING BIOMT TRANSFORMATIONS          
 350 GIVEN BELOW.  BOTH NON-CRYSTALLOGRAPHIC AND                          
 350 CRYSTALLOGRAPHIC OPERATIONS ARE GIVEN.                               
 350                                                                      
 350 BIOMOLECULE: 1                                                       
 350 AUTHOR DETERMINED BIOLOGICAL UNIT: MONOMERIC                         
 350 SOFTWARE DETERMINED QUATERNARY STRUCTURE: MONOMERIC                  
 350 SOFTWARE USED: PISA                                                  
 350 APPLY THE FOLLOWING TO CHAINS: A                                     
 350   BIOMT1   1  1.000000  0.000000  0.000000        0.00000            
 350   BIOMT2   1  0.000000  1.000000  0.000000        0.00000            
 350   BIOMT3   1  0.000000  0.000000  1.000000        0.00000            
 375                                                                      
 375 SPECIAL POSITION                                                     
 375 THE FOLLOWING ATOMS ARE FOUND TO BE WITHIN 0.15 ANGSTROMS            
 375 OF A SYMMETRY RELATED ATOM AND ARE ASSUMED TO BE ON SPECIAL          
 375 POSITIONS.                                                           
 375                                                                      
 375 ATOM RES CSSEQI                                                      
 375      HOH A 563  LIES ON A SPECIAL POSITION.                          
 375      HOH A 626  LIES ON A SPECIAL POSITION.                          
 465                                                                      
 465 MISSING RESIDUES                                                     
 465 THE FOLLOWING RESIDUES WERE NOT LOCATED IN THE                       
 465 EXPERIMENT. (M=MODEL NUMBER; RES=RESIDUE NAME; C=CHAIN               
 465 IDENTIFIER; SSSEQ=SEQUENCE NUMBER; I=INSERTION CODE.)                
 465                                                                      
 465   M RES C SSSEQI                                                     
 465     MET A    31                                                      
 470                                                                      
 470 MISSING ATOM                                                         
 470 THE FOLLOWING RESIDUES HAVE MISSING ATOMS (M=MODEL NUMBER;           
 470 RES=RESIDUE NAME; C=CHAIN IDENTIFIER; SSEQ=SEQUENCE NUMBER;          
 470 I=INSERTION CODE):                                                   
 470   M RES CSSEQI  ATOMS                                                
 470     GLU A  59    CG   CD   OE1  OE2                                  
 470     GLU A 196    CG   CD   OE1  OE2                                  
 470     GLU A 254    CG   CD   OE1  OE2                                  
 500                                                                      
 500 GEOMETRY AND STEREOCHEMISTRY                                         
 500 SUBTOPIC: CLOSE CONTACTS IN SAME ASYMMETRIC UNIT                     
 500                                                                      
 500 THE FOLLOWING ATOMS ARE IN CLOSE CONTACT.                            
 500                                                                      
 500  ATM1  RES C  SSEQI   ATM2  RES C  SSEQI           DISTANCE          
 500   ND2  ASN A   240     O    HOH A   401              2.06            
 500   O3   SO4 A   304     O    HOH A   402              2.17            
 500   OG   SER A    81     O10  OZ0 A   301              2.17            
 500                                                                      
 500 REMARK: NULL                                                         
 500                                                                      
 500 GEOMETRY AND STEREOCHEMISTRY                                         
 500 SUBTOPIC: CLOSE CONTACTS                                             
 500                                                                      
 500 THE FOLLOWING ATOMS THAT ARE RELATED BY CRYSTALLOGRAPHIC             
 500 SYMMETRY ARE IN CLOSE CONTACT.  AN ATOM LOCATED WITHIN 0.15          
 500 ANGSTROMS OF A SYMMETRY RELATED ATOM IS ASSUMED TO BE ON A           
 500 SPECIAL POSITION AND IS, THEREFORE, LISTED IN REMARK 375             
 500 INSTEAD OF REMARK 500.  ATOMS WITH NON-BLANK ALTERNATE               
 500 LOCATION INDICATORS ARE NOT INCLUDED IN THE CALCULATIONS.            
 500                                                                      
 500 DISTANCE CUTOFF:                                                     
 500 2.2 ANGSTROMS FOR CONTACTS NOT INVOLVING HYDROGEN ATOMS              
 500 1.6 ANGSTROMS FOR CONTACTS INVOLVING HYDROGEN ATOMS                  
 500                                                                      
 500  ATM1  RES C  SSEQI   ATM2  RES C  SSEQI  SSYMOP   DISTANCE          
 500   NE2  GLN A    52     O    PRO A   113     4554     2.13            
 500                                                                      
 500 REMARK: NULL                                                         
 500                                                                      
 500 GEOMETRY AND STEREOCHEMISTRY                                         
 500 SUBTOPIC: COVALENT BOND LENGTHS                                      
 500                                                                      
 500 THE STEREOCHEMICAL PARAMETERS OF THE FOLLOWING RESIDUES              
 500 HAVE VALUES WHICH DEVIATE FROM EXPECTED VALUES BY MORE               
 500 THAN 6*RMSD (M=MODEL NUMBER; RES=RESIDUE NAME; C=CHAIN               
 500 IDENTIFIER; SSEQ=SEQUENCE NUMBER; I=INSERTION CODE).                 
 500                                                                      
 500 STANDARD TABLE:                                                      
 500 FORMAT: (10X,I3,1X,2(A3,1X,A1,I4,A1,1X,A4,3X),1X,F6.3)               
 500                                                                      
 500 EXPECTED VALUES PROTEIN: ENGH AND HUBER, 1999                        
 500 EXPECTED VALUES NUCLEIC ACID: CLOWNEY ET AL 1996                     
 500                                                                      
 500  M RES CSSEQI ATM1   RES CSSEQI ATM2   DEVIATION                     
 500    GLU A 251   CD    GLU A 251   OE2    -0.079                       
 500                                                                      
 500 REMARK: NULL                                                         
 500                                                                      
 500 GEOMETRY AND STEREOCHEMISTRY                                         
 500 SUBTOPIC: TORSION ANGLES                                             
 500                                                                      
 500 TORSION ANGLES OUTSIDE THE EXPECTED RAMACHANDRAN REGIONS:            
 500 (M=MODEL NUMBER; RES=RESIDUE NAME; C=CHAIN IDENTIFIER;               
 500 SSEQ=SEQUENCE NUMBER; I=INSERTION CODE).                             
 500                                                                      
 500 STANDARD TABLE:                                                      
 500 FORMAT:(10X,I3,1X,A3,1X,A1,I4,A1,4X,F7.2,3X,F7.2)                    
 500                                                                      
 500 EXPECTED VALUES: GJ KLEYWEGT AND TA JONES (1996). PHI/PSI-           
 500 CHOLOGY: RAMACHANDRAN REVISITED. STRUCTURE 4, 1395 - 1400            
 500                                                                      
 500  M RES CSSEQI        PSI       PHI                                   
 500    ALA A  69       71.77   -150.54                                   
 500    ALA A  80     -141.14     49.20                                   
 500    ASN A 211     -110.39     44.32                                   
 500                                                                      
 500 REMARK: NULL                                                         

>  <DBREF>
 8CUM A   32   275  UNP    Q8RLA6   Q8RLA6_ACIBA    32    275             

>  <SEQADV>
 8CUM MET A   31  UNP  Q8RLA6              EXPRESSION TAG                 

>  <SEQRES>
   1 A  245  MET HIS ILE SER SER GLN GLN HIS GLU LYS ALA ILE LYS          
   2 A  245  SER TYR PHE ASP GLU ALA GLN THR GLN GLY VAL ILE ILE          
   3 A  245  ILE LYS GLU GLY LYS ASN LEU SER THR TYR GLY ASN ALA          
   4 A  245  LEU ALA ARG ALA ASN LYS GLU TYR VAL PRO ALA SER THR          
   5 A  245  PHE KCX MET LEU ASN ALA LEU ILE GLY LEU GLU ASN HIS          
   6 A  245  LYS ALA THR THR ASN GLU ILE PHE LYS TRP ASP GLY LYS          
   7 A  245  LYS ARG THR TYR PRO MET TRP GLU LYS ASP MET THR LEU          
   8 A  245  GLY GLU ALA MET ALA LEU SER ALA VAL PRO VAL TYR GLN          
   9 A  245  GLU LEU ALA ARG ARG THR GLY LEU GLU LEU MET GLN LYS          
  10 A  245  GLU VAL LYS ARG VAL ASN PHE GLY ASN THR ASN ILE GLY          
  11 A  245  THR GLN VAL ASP ASN PHE TRP LEU VAL GLY PRO LEU LYS          
  12 A  245  ILE THR PRO VAL GLN GLU VAL ASN PHE ALA ASP ASP LEU          
  13 A  245  ALA HIS ASN ARG LEU PRO PHE LYS LEU GLU THR GLN GLU          
  14 A  245  GLU VAL LYS LYS MET LEU LEU ILE LYS GLU VAL ASN GLY          
  15 A  245  SER LYS ILE TYR ALA LYS SER GLY TRP GLY MET GLY VAL          
  16 A  245  THR PRO GLN VAL GLY TRP LEU THR GLY TRP VAL GLU GLN          
  17 A  245  ALA ASN GLY LYS LYS ILE PRO PHE SER LEU ASN LEU GLU          
  18 A  245  MET LYS GLU GLY MET SER GLY SER ILE ARG ASN GLU ILE          
  19 A  245  THR TYR LYS SER LEU GLU ASN LEU GLY ILE ILE                  

>  <MODRES>
 8CUM KCX A   84  LYS  MODIFIED RESIDUE                                   

>  <HET>
 KCX  A  84      12                                                       
 OZ0  A 301      34                                                       
 SO4  A 302       5                                                       
 SO4  A 303       5                                                       
 SO4  A 304       5                                                       
 SO4  A 305       5                                                       
 SO4  A 306       5                                                       
 SO4  A 307       5                                                       

>  <HETNAM>
     KCX LYSINE NZ-CARBOXYLIC ACID                                        
     OZ0 3-({[(1S)-1-BORONOPROPYL]SULFAMOYL}METHYL)BENZOIC ACID           
     SO4 SULFATE ION                                                      

>  <FORMUL>
   1  KCX    C7 H14 N2 O4                                                 
   2  OZ0    C11 H16 B N O6 S                                             
   3  SO4    6(O4 S 2-)                                                   
   9  HOH   *266(H2 O)                                                    

>  <HELIX>
   1 AA1 SER A   34  ALA A   49  1                                  16    
   2 AA2 ALA A   69  LYS A   75  5                                   7    
   3 AA3 PRO A   79  SER A   81  5                                   3    
   4 AA4 THR A   82  ASN A   94  1                                  13    
   5 AA5 TYR A  112  GLU A  116  5                                   5    
   6 AA6 THR A  120  SER A  128  1                                   9    
   7 AA7 ALA A  129  GLY A  141  1                                  13    
   8 AA8 GLY A  141  ASN A  153  1                                  13    
   9 AA9 THR A  175  HIS A  188  1                                  14    
  10 AB1 LYS A  194  MET A  204  1                                  11    
  11 AB2 GLY A  258  LEU A  272  1                                  15    

>  <SHEET>
   1 AA1 6 ASN A  62  GLY A  67  0                                        
   2 AA1 6 GLY A  53  GLU A  59 -1  N  ILE A  57   O  SER A  64           
   3 AA1 6 LYS A 243  MET A 252 -1  O  ASN A 249   N  VAL A  54           
   4 AA1 6 GLN A 228  GLU A 237 -1  N  GLN A 228   O  MET A 252           
   5 AA1 6 SER A 213  GLY A 222 -1  N  LYS A 214   O  GLU A 237           
   6 AA1 6 LEU A 206  VAL A 210 -1  N  VAL A 210   O  SER A 213           

>  <LINK>
       OG  SER A  81                 B08 OZ0 A 301     1555   1555  1.46  
       C   PHE A  83                 N   KCX A  84     1555   1555  1.34  
       C   KCX A  84                 N   MET A  85     1555   1555  1.34  

>  <CISPEP>
   1 GLY A  170    PRO A  171          0         7.54                     
   2 THR A  226    PRO A  227          0         0.46                     
   3 THR A  226    PRO A  227          0        -7.02                     

>  <ORIGX1>
      1.000000  0.000000  0.000000        0.00000                         

>  <ORIGX2>
      0.000000  1.000000  0.000000        0.00000                         

>  <ORIGX3>
      0.000000  0.000000  1.000000        0.00000                         

>  <SCALE1>
      0.009786  0.000000  0.000000        0.00000                         

>  <SCALE2>
      0.000000  0.009786  0.000000        0.00000                         

>  <SCALE3>
      0.000000  0.000000  0.011660        0.00000                         

>  <MASTER>
      327    0    8   11    6    0    0    6 2243    1   79   19          

$$$$
