start_structures/Ligand_Substrate/Ligand_Complex_Stripped/OZ9_8CUO.pdb
 OpenBabel08222315213D

 40 40  0  0  1  0  0  0  0  0999 V2000
   27.0490    1.8870    7.1540 N   0  0  0  0  0  0  0  0  0  0  0  0
   26.4630    1.4130    8.4120 C   0  0  2  0  0  0  0  0  0  0  0  0
   25.5740    2.4500    9.0890 C   0  0  0  0  0  0  0  0  0  0  0  0
   24.9410    2.1200   10.0940 O   0  0  0  0  0  0  0  0  0  0  0  0
   27.5550    0.9560    9.3970 C   0  0  0  0  0  0  0  0  0  0  0  0
   28.3240   -0.1110    8.8080 O   0  0  0  0  0  0  0  0  0  0  0  0
   32.6440   -5.6690    6.2590 C   0  0  0  0  0  0  0  0  0  0  0  0
   31.9950   -8.0920    6.0410 C   0  0  0  0  0  0  0  0  0  0  0  0
   33.7310   -6.9810    4.5340 C   0  0  0  0  0  0  0  0  0  0  0  0
   29.7180    0.0620    8.3900 B   0  0  0  0  0  0  0  0  0  0  0  0
   34.4640   -5.8570    4.1490 C   0  0  0  0  0  0  0  0  0  0  0  0
   34.2850   -4.6440    4.8210 C   0  0  0  0  0  0  0  0  0  0  0  0
   33.3690   -4.5360    5.8750 C   0  0  0  0  0  0  0  0  0  0  0  0
   33.1650   -3.1850    6.6210 C   0  0  0  0  0  0  0  0  0  0  0  0
   30.1490   -1.4750    8.0200 C   0  0  2  0  0  0  0  0  0  0  0  0
   30.9730   -2.1750    9.1510 C   0  0  0  0  0  0  0  0  0  0  0  0
   32.3380   -1.4660    9.3490 C   0  0  0  0  0  0  0  0  0  0  0  0
   32.8240   -6.8830    5.5870 C   0  0  0  0  0  0  0  0  0  0  0  0
   31.0920   -1.0420    6.9340 N   0  0  0  0  0  0  0  0  0  0  0  0
   29.8140    1.0510    7.4230 O   0  0  0  0  0  0  0  0  0  0  0  0
   30.3310    0.5480    9.5290 O   0  0  0  0  0  0  0  0  0  0  0  0
   30.7510   -3.2080    5.4450 O   0  0  0  0  0  0  0  0  0  0  0  0
   32.1870   -1.7440    4.5230 O   0  0  0  0  0  0  0  0  0  0  0  0
   32.5310   -9.2090    6.2670 O   0  0  0  0  0  0  0  0  0  0  0  0
   30.7540   -7.9480    6.2030 O   0  5  0  0  0  0  0  0  0  0  0  0
   31.7820   -2.2430    5.8510 S   0  0  0  0  0  0  0  0  0  0  0  0
   31.9370   -5.6060    7.0840 H   0  0  0  0  0  0  0  0  0  0  0  0
   33.8690   -7.9280    4.0160 H   0  0  0  0  0  0  0  0  0  0  0  0
   35.1730   -5.9240    3.3270 H   0  0  0  0  0  0  0  0  0  0  0  0
   34.8640   -3.7730    4.5220 H   0  0  0  0  0  0  0  0  0  0  0  0
   32.9300   -3.3820    7.6660 H   0  0  0  0  0  0  0  0  0  0  0  0
   34.0800   -2.5980    6.5590 H   0  0  0  0  0  0  0  0  0  0  0  0
   31.1470   -3.2140    8.8760 H   0  0  0  0  0  0  0  0  0  0  0  0
   30.4100   -2.1340   10.0820 H   0  0  0  0  0  0  0  0  0  0  0  0
   32.7600   -1.2130    8.3790 H   0  0  0  0  0  0  0  0  0  0  0  0
   33.0180   -2.1300    9.8780 H   0  0  0  0  0  0  0  0  0  0  0  0
   32.1930   -0.5580    9.9300 H   0  0  0  0  0  0  0  0  0  0  0  0
   31.3270   -0.0700    6.8270 H   0  0  0  0  0  0  0  0  0  0  0  0
   29.5960    0.7040    6.5720 H   0  0  0  0  0  0  0  0  0  0  0  0
   30.0650    0.0520   10.2930 H   0  0  0  0  0  0  0  0  0  0  0  0
  2  1  1  6  0  0  0
  2  3  1  0  0  0  0
  2  5  1  0  0  0  0
  3  4  2  0  0  0  0
  6 10  1  0  0  0  0
  6  5  1  0  0  0  0
  7 13  2  0  0  0  0
  7 18  1  0  0  0  0
  7 27  1  0  0  0  0
  8 18  1  0  0  0  0
  8 24  2  0  0  0  0
  8 25  1  0  0  0  0
  9 11  1  0  0  0  0
  9 18  2  0  0  0  0
  9 28  1  0  0  0  0
 10 15  1  0  0  0  0
 10 20  1  0  0  0  0
 10 21  1  0  0  0  0
 11 12  2  0  0  0  0
 11 29  1  0  0  0  0
 12 13  1  0  0  0  0
 12 30  1  0  0  0  0
 13 14  1  0  0  0  0
 14 26  1  0  0  0  0
 14 31  1  0  0  0  0
 14 32  1  0  0  0  0
 15 16  1  1  0  0  0
 15 19  1  0  0  0  0
 16 17  1  0  0  0  0
 16 33  1  0  0  0  0
 16 34  1  0  0  0  0
 17 35  1  0  0  0  0
 17 36  1  0  0  0  0
 17 37  1  0  0  0  0
 19 26  1  0  0  0  0
 19 38  1  0  0  0  0
 20 39  1  0  0  0  0
 21 40  1  0  0  0  0
 22 26  2  0  0  0  0
 23 26  2  0  0  0  0
M  CHG  1  25  -1
M  END
>  <HEADER>
    HYDROLASE/INHIBITOR                     17-MAY-22   8CUO              

>  <TITLE>
    X-RAY CRYSTAL STRUCTURE OF OXA-24/40 IN COMPLEX WITH                  
   2 SULFONAMIDOBORONIC ACID 6E                                           

>  <COMPND>
    MOL_ID: 1;                                                            
   2 MOLECULE: BETA-LACTAMASE;                                            
   3 CHAIN: A;                                                            
   4 FRAGMENT: UNP RESIDUES 32-275;                                       
   5 SYNONYM: CARBAPENEM-HYDROLYZING BETA-LACTAMASE OXA-40,CARBAPENEM-    
   6 HYDROLYZING CLASS D BETA-LACTAMASE OXA-24,CARBAPENEM-HYDROLYZING     
   7 OXACILLINASE,CARBAPENEM-HYDROLYZING OXACILLINASE OXA-40,CARBAPENEMASE
   8 OXA-24,CLASS D BETA-LACTAMASE OXA-40,OXA-24 CLASS D BETA-LACTAMASE,  
   9 OXA24 B-LACTAMASE,OXA40;                                             
  10 EC: 3.5.2.6;                                                         
  11 ENGINEERED: YES                                                      

>  <SOURCE>
    MOL_ID: 1;                                                            
   2 ORGANISM_SCIENTIFIC: ACINETOBACTER BAUMANNII;                        
   3 ORGANISM_TAXID: 470;                                                 
   4 GENE: BLAOXA-33, BLA-OXA-40, BLAOXA-24, BLAOXA-40, OXA-24, OXA40,    
   5 SI89_16690;                                                          
   6 EXPRESSION_SYSTEM: ESCHERICHIA COLI BL21(DE3);                       
   7 EXPRESSION_SYSTEM_TAXID: 469008                                      

>  <KEYWDS>
    CARBAPENEMASE, INHIBITOR, BATSI, HYDROLASE-INHIBITOR COMPLEX          

>  <EXPDTA>
    X-RAY DIFFRACTION                                                     

>  <AUTHOR>
    M.C.FERNANDO,B.J.WALLAR,R.A.POWERS                                    

>  <REVDAT>
   1   05-APR-23 8CUO    0                                                

>  <JRNL>
      AUTH   L.M.INTROVIGNE,T.J.BEARDSLEY,M.C.FERNANDO,D.A.LEONARD,       
      AUTH 2 B.J.WALLAR,S.D.RUDIN,M.A.TARACILA,P.N.RATHER,J.M.COLQUHOUN,  
      AUTH 3 S.SONG,F.FINI,K.M.HUJER,A.M.HUJER,F.PRATI,R.A.POWERS,        
      AUTH 4 R.A.BONOMO,E.CASELLI                                         
      TITL   SULFONAMIDOBORONIC ACIDS AS "CROSS-CLASS" INHIBITORS OF AN   
      TITL 2 EXPANDED-SPECTRUM CLASS C CEPHALOSPORINASE, ADC-33, AND A    
      TITL 3 CLASS D CARBAPENEMASE, OXA-24/40: STRATEGIC COMPOUND DESIGN  
      TITL 4 TO COMBAT RESISTANCE IN ACINETOBACTER BAUMANNII              
      REF    ANTIBIOTICS                   V.  12   644 2023              
      REFN                   ESSN 2079-6382                               
      DOI    10.3390/ANTIBIOTICS12040644                                  

>  <REMARK>
   2                                                                      
   2 RESOLUTION.    1.47 ANGSTROMS.                                       
   3                                                                      
   3 REFINEMENT.                                                          
   3   PROGRAM     : PHENIX 1.19.2_4158                                   
   3   AUTHORS     : PAUL ADAMS,PAVEL AFONINE,VINCENT CHEN,IAN            
   3               : DAVIS,KRESHNA GOPAL,RALF GROSSE-KUNSTLEVE,           
   3               : LI-WEI HUNG,ROBERT IMMORMINO,TOM IOERGER,            
   3               : AIRLIE MCCOY,ERIK MCKEE,NIGEL MORIARTY,              
   3               : REETAL PAI,RANDY READ,JANE RICHARDSON,               
   3               : DAVID RICHARDSON,TOD ROMO,JIM SACCHETTINI,           
   3               : NICHOLAS SAUTER,JACOB SMITH,LAURENT                  
   3               : STORONI,TOM TERWILLIGER,PETER ZWART                  
   3                                                                      
   3    REFINEMENT TARGET : ML                                            
   3                                                                      
   3  DATA USED IN REFINEMENT.                                            
   3   RESOLUTION RANGE HIGH (ANGSTROMS) : 1.47                           
   3   RESOLUTION RANGE LOW  (ANGSTROMS) : 43.98                          
   3   MIN(FOBS/SIGMA_FOBS)              : 1.340                          
   3   COMPLETENESS FOR RANGE        (%) : 99.9                           
   3   NUMBER OF REFLECTIONS             : 77977                          
   3                                                                      
   3  FIT TO DATA USED IN REFINEMENT.                                     
   3   R VALUE     (WORKING + TEST SET) : 0.183                           
   3   R VALUE            (WORKING SET) : 0.181                           
   3   FREE R VALUE                     : 0.203                           
   3   FREE R VALUE TEST SET SIZE   (%) : 4.980                           
   3   FREE R VALUE TEST SET COUNT      : 3887                            
   3                                                                      
   3  FIT TO DATA USED IN REFINEMENT (IN BINS).                           
   3   BIN  RESOLUTION RANGE  COMPL.    NWORK NFREE   RWORK  RFREE        
   3     1 43.9800 -  4.4600    0.99     2861   155  0.1807 0.2155        
   3     2  4.4600 -  3.5400    1.00     2726   166  0.1392 0.1501        
   3     3  3.5400 -  3.0900    1.00     2703   136  0.1542 0.1783        
   3     4  3.0900 -  2.8100    1.00     2705   130  0.1702 0.1736        
   3     5  2.8100 -  2.6100    1.00     2673   149  0.1739 0.1706        
   3     6  2.6100 -  2.4600    1.00     2669   141  0.1751 0.1845        
   3     7  2.4600 -  2.3300    1.00     2631   153  0.1673 0.2238        
   3     8  2.3300 -  2.2300    1.00     2635   148  0.1728 0.2000        
   3     9  2.2300 -  2.1500    1.00     2662   145  0.1639 0.1896        
   3    10  2.1500 -  2.0700    1.00     2652   126  0.1585 0.1927        
   3    11  2.0700 -  2.0100    1.00     2612   148  0.1704 0.1836        
   3    12  2.0100 -  1.9500    1.00     2651   146  0.1815 0.1972        
   3    13  1.9500 -  1.9000    1.00     2613   140  0.1844 0.2146        
   3    14  1.9000 -  1.8500    1.00     2642   133  0.1850 0.2213        
   3    15  1.8500 -  1.8100    1.00     2623   119  0.1851 0.2132        
   3    16  1.8100 -  1.7700    1.00     2654   127  0.1906 0.2269        
   3    17  1.7700 -  1.7400    1.00     2612   128  0.2027 0.2629        
   3    18  1.7400 -  1.7000    1.00     2638   141  0.2191 0.2824        
   3    19  1.7000 -  1.6700    1.00     2608   135  0.2393 0.2946        
   3    20  1.6700 -  1.6400    1.00     2621   133  0.2563 0.2595        
   3    21  1.6400 -  1.6200    1.00     2628   140  0.2658 0.2399        
   3    22  1.6200 -  1.5900    1.00     2596   134  0.2667 0.3099        
   3    23  1.5900 -  1.5700    1.00     2605   156  0.2761 0.2969        
   3    24  1.5700 -  1.5500    1.00     2603   136  0.2899 0.3087        
   3    25  1.5500 -  1.5300    1.00     2635   130  0.3100 0.3333        
   3    26  1.5300 -  1.5100    1.00     2609   122  0.3094 0.3311        
   3    27  1.5100 -  1.4900    1.00     2622   121  0.3315 0.3442        
   3    28  1.4900 -  1.4700    1.00     2601   149  0.3523 0.3425        
   3                                                                      
   3  BULK SOLVENT MODELLING.                                             
   3   METHOD USED        : FLAT BULK SOLVENT MODEL                       
   3   SOLVENT RADIUS     : 1.11                                          
   3   SHRINKAGE RADIUS   : 0.90                                          
   3   K_SOL              : NULL                                          
   3   B_SOL              : NULL                                          
   3                                                                      
   3  ERROR ESTIMATES.                                                    
   3   COORDINATE ERROR (MAXIMUM-LIKELIHOOD BASED)     : 0.190            
   3   PHASE ERROR (DEGREES, MAXIMUM-LIKELIHOOD BASED) : 21.870           
   3                                                                      
   3  B VALUES.                                                           
   3   FROM WILSON PLOT           (A**2) : 18.46                          
   3   MEAN B VALUE      (OVERALL, A**2) : 24.05                          
   3   OVERALL ANISOTROPIC B VALUE.                                       
   3    B11 (A**2) : NULL                                                 
   3    B22 (A**2) : NULL                                                 
   3    B33 (A**2) : NULL                                                 
   3    B12 (A**2) : NULL                                                 
   3    B13 (A**2) : NULL                                                 
   3    B23 (A**2) : NULL                                                 
   3                                                                      
   3  TWINNING INFORMATION.                                               
   3   FRACTION: NULL                                                     
   3   OPERATOR: NULL                                                     
   3                                                                      
   3  DEVIATIONS FROM IDEAL VALUES.                                       
   3                 RMSD          COUNT                                  
   3   BOND      :   NULL           NULL                                  
   3   ANGLE     :   NULL           NULL                                  
   3   CHIRALITY :   NULL           NULL                                  
   3   PLANARITY :   NULL           NULL                                  
   3   DIHEDRAL  :   NULL           NULL                                  
   3                                                                      
   3  TLS DETAILS                                                         
   3   NUMBER OF TLS GROUPS  : NULL                                       
   3                                                                      
   3  NCS DETAILS                                                         
   3   NUMBER OF NCS GROUPS : NULL                                        
   3                                                                      
   3  OTHER REFINEMENT REMARKS: NULL                                      
   4                                                                      
   4 8CUO COMPLIES WITH FORMAT V. 3.30, 13-JUL-11                         
 100                                                                      
 100 THIS ENTRY HAS BEEN PROCESSED BY RCSB ON 19-MAY-22.                  
 100 THE DEPOSITION ID IS D_1000265461.                                   
 200                                                                      
 200 EXPERIMENTAL DETAILS                                                 
 200  EXPERIMENT TYPE                : X-RAY DIFFRACTION                  
 200  DATE OF DATA COLLECTION        : 13-NOV-20                          
 200  TEMPERATURE           (KELVIN) : 100                                
 200  PH                             : NULL                               
 200  NUMBER OF CRYSTALS USED        : 1                                  
 200                                                                      
 200  SYNCHROTRON              (Y/N) : Y                                  
 200  RADIATION SOURCE               : APS                                
 200  BEAMLINE                       : 21-ID-F                            
 200  X-RAY GENERATOR MODEL          : NULL                               
 200  MONOCHROMATIC OR LAUE    (M/L) : M                                  
 200  WAVELENGTH OR RANGE        (A) : .97872                             
 200  MONOCHROMATOR                  : NULL                               
 200  OPTICS                         : NULL                               
 200                                                                      
 200  DETECTOR TYPE                  : CCD                                
 200  DETECTOR MANUFACTURER          : RAYONIX MX-300                     
 200  INTENSITY-INTEGRATION SOFTWARE : XDS                                
 200  DATA SCALING SOFTWARE          : AIMLESS 0.7.4                      
 200                                                                      
 200  NUMBER OF UNIQUE REFLECTIONS   : 78080                              
 200  RESOLUTION RANGE HIGH      (A) : 1.470                              
 200  RESOLUTION RANGE LOW       (A) : 43.980                             
 200  REJECTION CRITERIA  (SIGMA(I)) : NULL                               
 200                                                                      
 200 OVERALL.                                                             
 200  COMPLETENESS FOR RANGE     (%) : 100.0                              
 200  DATA REDUNDANCY                : 7.800                              
 200  R MERGE                    (I) : 0.10200                            
 200  R SYM                      (I) : NULL                               
 200  <I/SIGMA(I)> FOR THE DATA SET  : 11.6000                            
 200                                                                      
 200 IN THE HIGHEST RESOLUTION SHELL.                                     
 200  HIGHEST RESOLUTION SHELL, RANGE HIGH (A) : 1.47                     
 200  HIGHEST RESOLUTION SHELL, RANGE LOW  (A) : 1.51                     
 200  COMPLETENESS FOR SHELL     (%) : 100.0                              
 200  DATA REDUNDANCY IN SHELL       : 6.70                               
 200  R MERGE FOR SHELL          (I) : 2.44900                            
 200  R SYM FOR SHELL            (I) : NULL                               
 200  <I/SIGMA(I)> FOR SHELL         : NULL                               
 200                                                                      
 200 DIFFRACTION PROTOCOL: SINGLE WAVELENGTH                              
 200 METHOD USED TO DETERMINE THE STRUCTURE: MOLECULAR REPLACEMENT        
 200 SOFTWARE USED: PHASER                                                
 200 STARTING MODEL: 3PAE                                                 
 200                                                                      
 200 REMARK: NULL                                                         
 280                                                                      
 280 CRYSTAL                                                              
 280 SOLVENT CONTENT, VS   (%): 69.78                                     
 280 MATTHEWS COEFFICIENT, VM (ANGSTROMS**3/DA): 4.07                     
 280                                                                      
 280 CRYSTALLIZATION CONDITIONS: 0.1 M HEPES SODIUM PH 7.5 2% V/V PEG     
 280  400 2.0 AMMONIUM SULFATE, VAPOR DIFFUSION, HANGING DROP,            
 280  TEMPERATURE 298K                                                    
 290                                                                      
 290 CRYSTALLOGRAPHIC SYMMETRY                                            
 290 SYMMETRY OPERATORS FOR SPACE GROUP: P 41 21 2                        
 290                                                                      
 290      SYMOP   SYMMETRY                                                
 290     NNNMMM   OPERATOR                                                
 290       1555   X,Y,Z                                                   
 290       2555   -X,-Y,Z+1/2                                             
 290       3555   -Y+1/2,X+1/2,Z+1/4                                      
 290       4555   Y+1/2,-X+1/2,Z+3/4                                      
 290       5555   -X+1/2,Y+1/2,-Z+1/4                                     
 290       6555   X+1/2,-Y+1/2,-Z+3/4                                     
 290       7555   Y,X,-Z                                                  
 290       8555   -Y,-X,-Z+1/2                                            
 290                                                                      
 290     WHERE NNN -> OPERATOR NUMBER                                     
 290           MMM -> TRANSLATION VECTOR                                  
 290                                                                      
 290 CRYSTALLOGRAPHIC SYMMETRY TRANSFORMATIONS                            
 290 THE FOLLOWING TRANSFORMATIONS OPERATE ON THE ATOM/HETATM             
 290 RECORDS IN THIS ENTRY TO PRODUCE CRYSTALLOGRAPHICALLY                
 290 RELATED MOLECULES.                                                   
 290   SMTRY1   1  1.000000  0.000000  0.000000        0.00000            
 290   SMTRY2   1  0.000000  1.000000  0.000000        0.00000            
 290   SMTRY3   1  0.000000  0.000000  1.000000        0.00000            
 290   SMTRY1   2 -1.000000  0.000000  0.000000        0.00000            
 290   SMTRY2   2  0.000000 -1.000000  0.000000        0.00000            
 290   SMTRY3   2  0.000000  0.000000  1.000000       43.21500            
 290   SMTRY1   3  0.000000 -1.000000  0.000000       51.09000            
 290   SMTRY2   3  1.000000  0.000000  0.000000       51.09000            
 290   SMTRY3   3  0.000000  0.000000  1.000000       21.60750            
 290   SMTRY1   4  0.000000  1.000000  0.000000       51.09000            
 290   SMTRY2   4 -1.000000  0.000000  0.000000       51.09000            
 290   SMTRY3   4  0.000000  0.000000  1.000000       64.82250            
 290   SMTRY1   5 -1.000000  0.000000  0.000000       51.09000            
 290   SMTRY2   5  0.000000  1.000000  0.000000       51.09000            
 290   SMTRY3   5  0.000000  0.000000 -1.000000       21.60750            
 290   SMTRY1   6  1.000000  0.000000  0.000000       51.09000            
 290   SMTRY2   6  0.000000 -1.000000  0.000000       51.09000            
 290   SMTRY3   6  0.000000  0.000000 -1.000000       64.82250            
 290   SMTRY1   7  0.000000  1.000000  0.000000        0.00000            
 290   SMTRY2   7  1.000000  0.000000  0.000000        0.00000            
 290   SMTRY3   7  0.000000  0.000000 -1.000000        0.00000            
 290   SMTRY1   8  0.000000 -1.000000  0.000000        0.00000            
 290   SMTRY2   8 -1.000000  0.000000  0.000000        0.00000            
 290   SMTRY3   8  0.000000  0.000000 -1.000000       43.21500            
 290                                                                      
 290 REMARK: NULL                                                         
 300                                                                      
 300 BIOMOLECULE: 1                                                       
 300 SEE REMARK 350 FOR THE AUTHOR PROVIDED AND/OR PROGRAM                
 300 GENERATED ASSEMBLY INFORMATION FOR THE STRUCTURE IN                  
 300 THIS ENTRY. THE REMARK MAY ALSO PROVIDE INFORMATION ON               
 300 BURIED SURFACE AREA.                                                 
 350                                                                      
 350 COORDINATES FOR A COMPLETE MULTIMER REPRESENTING THE KNOWN           
 350 BIOLOGICALLY SIGNIFICANT OLIGOMERIZATION STATE OF THE                
 350 MOLECULE CAN BE GENERATED BY APPLYING BIOMT TRANSFORMATIONS          
 350 GIVEN BELOW.  BOTH NON-CRYSTALLOGRAPHIC AND                          
 350 CRYSTALLOGRAPHIC OPERATIONS ARE GIVEN.                               
 350                                                                      
 350 BIOMOLECULE: 1                                                       
 350 AUTHOR DETERMINED BIOLOGICAL UNIT: MONOMERIC                         
 350 SOFTWARE DETERMINED QUATERNARY STRUCTURE: MONOMERIC                  
 350 SOFTWARE USED: PISA                                                  
 350 APPLY THE FOLLOWING TO CHAINS: A                                     
 350   BIOMT1   1  1.000000  0.000000  0.000000        0.00000            
 350   BIOMT2   1  0.000000  1.000000  0.000000        0.00000            
 350   BIOMT3   1  0.000000  0.000000  1.000000        0.00000            
 375                                                                      
 375 SPECIAL POSITION                                                     
 375 THE FOLLOWING ATOMS ARE FOUND TO BE WITHIN 0.15 ANGSTROMS            
 375 OF A SYMMETRY RELATED ATOM AND ARE ASSUMED TO BE ON SPECIAL          
 375 POSITIONS.                                                           
 375                                                                      
 375 ATOM RES CSSEQI                                                      
 375      HOH A 567  LIES ON A SPECIAL POSITION.                          
 375      HOH A 650  LIES ON A SPECIAL POSITION.                          
 465                                                                      
 465 MISSING RESIDUES                                                     
 465 THE FOLLOWING RESIDUES WERE NOT LOCATED IN THE                       
 465 EXPERIMENT. (M=MODEL NUMBER; RES=RESIDUE NAME; C=CHAIN               
 465 IDENTIFIER; SSSEQ=SEQUENCE NUMBER; I=INSERTION CODE.)                
 465                                                                      
 465   M RES C SSSEQI                                                     
 465     MET A    31                                                      
 470                                                                      
 470 MISSING ATOM                                                         
 470 THE FOLLOWING RESIDUES HAVE MISSING ATOMS (M=MODEL NUMBER;           
 470 RES=RESIDUE NAME; C=CHAIN IDENTIFIER; SSEQ=SEQUENCE NUMBER;          
 470 I=INSERTION CODE):                                                   
 470   M RES CSSEQI  ATOMS                                                
 470     LYS A 109    CG   CD   CE   NZ                                   
 470     GLU A 196    CG   CD   OE1  OE2                                  
 470     LYS A 242    CG   CD   CE   NZ                                   
 470     GLU A 254    CG   CD   OE1  OE2                                  
 500                                                                      
 500 GEOMETRY AND STEREOCHEMISTRY                                         
 500 SUBTOPIC: CLOSE CONTACTS IN SAME ASYMMETRIC UNIT                     
 500                                                                      
 500 THE FOLLOWING ATOMS ARE IN CLOSE CONTACT.                            
 500                                                                      
 500  ATM1  RES C  SSEQI   ATM2  RES C  SSEQI           DISTANCE          
 500   NH2  ARG A   110     O    HOH A   401              2.06            
 500   NZ   LYS A   117     O    HOH A   403              2.15            
 500   ND2  ASN A   240     O    HOH A   404              2.18            
 500                                                                      
 500 REMARK: NULL                                                         
 500                                                                      
 500 GEOMETRY AND STEREOCHEMISTRY                                         
 500 SUBTOPIC: TORSION ANGLES                                             
 500                                                                      
 500 TORSION ANGLES OUTSIDE THE EXPECTED RAMACHANDRAN REGIONS:            
 500 (M=MODEL NUMBER; RES=RESIDUE NAME; C=CHAIN IDENTIFIER;               
 500 SSEQ=SEQUENCE NUMBER; I=INSERTION CODE).                             
 500                                                                      
 500 STANDARD TABLE:                                                      
 500 FORMAT:(10X,I3,1X,A3,1X,A1,I4,A1,4X,F7.2,3X,F7.2)                    
 500                                                                      
 500 EXPECTED VALUES: GJ KLEYWEGT AND TA JONES (1996). PHI/PSI-           
 500 CHOLOGY: RAMACHANDRAN REVISITED. STRUCTURE 4, 1395 - 1400            
 500                                                                      
 500  M RES CSSEQI        PSI       PHI                                   
 500    ALA A  69       70.88   -150.99                                   
 500    ALA A  80     -144.01     51.54                                   
 500    ASN A 165       13.25   -149.01                                   
 500    ASN A 211     -115.80     47.42                                   
 500                                                                      
 500 REMARK: NULL                                                         

>  <DBREF>
 8CUO A   32   275  UNP    Q8RLA6   Q8RLA6_ACIBA    32    275             

>  <SEQADV>
 8CUO MET A   31  UNP  Q8RLA6              EXPRESSION TAG                 

>  <SEQRES>
   1 A  245  MET HIS ILE SER SER GLN GLN HIS GLU LYS ALA ILE LYS          
   2 A  245  SER TYR PHE ASP GLU ALA GLN THR GLN GLY VAL ILE ILE          
   3 A  245  ILE LYS GLU GLY LYS ASN LEU SER THR TYR GLY ASN ALA          
   4 A  245  LEU ALA ARG ALA ASN LYS GLU TYR VAL PRO ALA SER THR          
   5 A  245  PHE KCX MET LEU ASN ALA LEU ILE GLY LEU GLU ASN HIS          
   6 A  245  LYS ALA THR THR ASN GLU ILE PHE LYS TRP ASP GLY LYS          
   7 A  245  LYS ARG THR TYR PRO MET TRP GLU LYS ASP MET THR LEU          
   8 A  245  GLY GLU ALA MET ALA LEU SER ALA VAL PRO VAL TYR GLN          
   9 A  245  GLU LEU ALA ARG ARG THR GLY LEU GLU LEU MET GLN LYS          
  10 A  245  GLU VAL LYS ARG VAL ASN PHE GLY ASN THR ASN ILE GLY          
  11 A  245  THR GLN VAL ASP ASN PHE TRP LEU VAL GLY PRO LEU LYS          
  12 A  245  ILE THR PRO VAL GLN GLU VAL ASN PHE ALA ASP ASP LEU          
  13 A  245  ALA HIS ASN ARG LEU PRO PHE LYS LEU GLU THR GLN GLU          
  14 A  245  GLU VAL LYS LYS MET LEU LEU ILE LYS GLU VAL ASN GLY          
  15 A  245  SER LYS ILE TYR ALA LYS SER GLY TRP GLY MET GLY VAL          
  16 A  245  THR PRO GLN VAL GLY TRP LEU THR GLY TRP VAL GLU GLN          
  17 A  245  ALA ASN GLY LYS LYS ILE PRO PHE SER LEU ASN LEU GLU          
  18 A  245  MET LYS GLU GLY MET SER GLY SER ILE ARG ASN GLU ILE          
  19 A  245  THR TYR LYS SER LEU GLU ASN LEU GLY ILE ILE                  

>  <MODRES>
 8CUO KCX A   84  LYS  MODIFIED RESIDUE                                   

>  <HET>
 KCX  A  84      12                                                       
 OZ9  A 301      34                                                       
 SO4  A 302       5                                                       
 SO4  A 303       5                                                       
 SO4  A 304       5                                                       
 SO4  A 305       5                                                       
 SO4  A 306       5                                                       
 SO4  A 307       5                                                       
 SO4  A 308       5                                                       

>  <HETNAM>
     KCX LYSINE NZ-CARBOXYLIC ACID                                        
     OZ9 3-({[(1R)-1-BORONOPROPYL]SULFAMOYL}METHYL)BENZOIC ACID           
     SO4 SULFATE ION                                                      

>  <FORMUL>
   1  KCX    C7 H14 N2 O4                                                 
   2  OZ9    C11 H16 B N O6 S                                             
   3  SO4    7(O4 S 2-)                                                   
  10  HOH   *299(H2 O)                                                    

>  <HELIX>
   1 AA1 SER A   34  ALA A   49  1                                  16    
   2 AA2 ALA A   69  LYS A   75  5                                   7    
   3 AA3 PRO A   79  SER A   81  5                                   3    
   4 AA4 THR A   82  ASN A   94  1                                  13    
   5 AA5 TYR A  112  GLU A  116  5                                   5    
   6 AA6 THR A  120  SER A  128  1                                   9    
   7 AA7 ALA A  129  GLY A  141  1                                  13    
   8 AA8 GLY A  141  ASN A  153  1                                  13    
   9 AA9 THR A  175  HIS A  188  1                                  14    
  10 AB1 LYS A  194  MET A  204  1                                  11    
  11 AB2 GLY A  258  LEU A  272  1                                  15    

>  <SHEET>
   1 AA1 6 ASN A  62  GLY A  67  0                                        
   2 AA1 6 GLY A  53  GLU A  59 -1  N  ILE A  55   O  TYR A  66           
   3 AA1 6 LYS A 243  MET A 252 -1  O  ASN A 249   N  VAL A  54           
   4 AA1 6 GLN A 228  GLU A 237 -1  N  GLY A 230   O  LEU A 250           
   5 AA1 6 SER A 213  GLY A 222 -1  N  LYS A 214   O  GLU A 237           
   6 AA1 6 LEU A 206  VAL A 210 -1  N  VAL A 210   O  SER A 213           

>  <LINK>
       OG  SER A  81                 B08 OZ9 A 301     1555   1555  1.47  
       C   PHE A  83                 N   KCX A  84     1555   1555  1.35  
       C   KCX A  84                 N   MET A  85     1555   1555  1.34  

>  <CISPEP>
   1 GLY A  170    PRO A  171          0         8.60                     
   2 THR A  226    PRO A  227          0        -5.67                     

>  <ORIGX1>
      1.000000  0.000000  0.000000        0.00000                         

>  <ORIGX2>
      0.000000  1.000000  0.000000        0.00000                         

>  <ORIGX3>
      0.000000  0.000000  1.000000        0.00000                         

>  <SCALE1>
      0.009787  0.000000  0.000000        0.00000                         

>  <SCALE2>
      0.000000  0.009787  0.000000        0.00000                         

>  <SCALE3>
      0.000000  0.000000  0.011570        0.00000                         

>  <MASTER>
      293    0    9   11    6    0    0    6 2277    1   84   19          

$$$$
