start_structures/Ligand_Substrate/Ligand_Complex_Stripped/OZF_8CUP.pdb
 OpenBabel08222315203D

 30 30  0  0  1  0  0  0  0  0999 V2000
  -10.2340    7.0060  -80.7580 N   0  0  0  0  0  0  0  0  0  0  0  0
  -10.0110    7.5820  -82.0780 C   0  0  2  0  0  0  0  0  0  0  0  0
  -11.1560    7.3380  -83.0410 C   0  0  0  0  0  0  0  0  0  0  0  0
  -11.1730    7.9660  -84.1040 O   0  0  0  0  0  0  0  0  0  0  0  0
   -8.7140    7.0170  -82.6770 C   0  0  0  0  0  0  0  0  0  0  0  0
   -7.5980    7.5710  -82.0110 O   0  0  0  0  0  0  0  0  0  0  0  0
   -5.4920   10.4800  -75.7470 C   0  0  0  0  0  0  0  0  0  0  0  0
   -5.1920   11.1250  -74.5500 C   0  0  0  0  0  0  0  0  0  0  0  0
   -5.6190   10.5930  -73.3440 C   0  0  0  0  0  0  0  0  0  0  0  0
   -6.8370    8.8070  -72.0330 C   0  0  0  0  0  0  0  0  0  0  0  0
   -6.6610    8.7740  -74.5240 C   0  0  0  0  0  0  0  0  0  0  0  0
   -6.8440    6.5730  -81.2790 B   0  0  1  0  0  0  0  0  0  0  0  0
   -3.4420    7.9510  -81.0920 C   0  0  0  0  0  0  0  0  0  0  0  0
   -4.9210    8.3160  -81.0920 C   0  0  0  0  0  0  0  0  0  0  0  0
   -5.5460    7.0510  -80.5300 C   0  0  1  0  0  0  0  0  0  0  0  0
   -6.5960    8.5850  -77.0280 C   0  0  0  0  0  0  0  0  0  0  0  0
   -6.2320    9.3030  -75.7280 C   0  0  0  0  0  0  0  0  0  0  0  0
   -6.3550    9.4150  -73.3400 C   0  0  0  0  0  0  0  0  0  0  0  0
   -5.6860    6.9540  -79.0820 N   0  0  0  0  0  0  0  0  0  0  0  0
   -4.1950    7.3450  -76.9510 O   0  0  0  0  0  0  0  0  0  0  0  0
   -4.3460    9.1710  -78.3510 O   0  0  0  0  0  0  0  0  0  0  0  0
   -6.7540    9.4660  -70.9540 O   0  0  0  0  0  0  0  0  0  0  0  0
   -7.3210    7.6440  -72.0550 O   0  0  0  0  0  0  0  0  0  0  0  0
   -7.6760    6.0800  -80.3380 O   0  0  0  0  0  0  0  0  0  0  0  0
   -6.2320    5.4330  -81.5500 O   0  0  0  0  0  0  0  0  0  0  0  0
   -6.7120    3.2900  -82.6340 O   0  0  0  0  0  0  0  0  0  0  0  0
   -4.5860    4.0940  -82.9550 O   0  0  0  0  0  0  0  0  0  0  0  0
   -6.4340    5.3000  -84.2590 O   0  0  0  0  0  0  0  0  0  0  0  0
   -5.9860    4.5350  -82.8720 P   0  0  0  0  0  0  0  0  0  0  0  0
   -5.1060    8.0230  -77.8780 S   0  0  0  0  0  0  0  0  0  0  0  0
  2  1  1  1  0  0  0
  3  2  1  0  0  0  0
  4  3  2  0  0  0  0
  5  2  1  0  0  0  0
  5  6  1  0  0  0  0
  6 12  1  0  0  0  0
  7  8  2  0  0  0  0
  7 17  1  0  0  0  0
  8  9  1  0  0  0  0
  9 18  2  0  0  0  0
 10 18  1  0  0  0  0
 10 22  2  0  0  0  0
 10 23  1  0  0  0  0
 11 17  2  0  0  0  0
 11 18  1  0  0  0  0
 12 15  1  0  0  0  0
 12 24  1  1  0  0  0
 12 25  1  0  0  0  0
 13 14  1  0  0  0  0
 15 14  1  1  0  0  0
 15 19  1  0  0  0  0
 16 17  1  0  0  0  0
 16 30  1  0  0  0  0
 19 30  1  0  0  0  0
 20 30  2  0  0  0  0
 21 30  2  0  0  0  0
 25 29  1  0  0  0  0
 26 29  2  0  0  0  0
 27 29  1  0  0  0  0
 28 29  1  0  0  0  0
M  END
>  <HEADER>
    HYDROLASE/INHIBITOR                     17-MAY-22   8CUP              

>  <TITLE>
    X-RAY CRYSTAL STRUCTURE OF ADC-33 IN COMPLEX WITH SULFONAMIDOBORONIC  
   2 ACID 6D                                                              

>  <COMPND>
    MOL_ID: 1;                                                            
   2 MOLECULE: BETA-LACTAMASE;                                            
   3 CHAIN: B, A;                                                         
   4 EC: 3.5.2.6;                                                         
   5 ENGINEERED: YES                                                      

>  <SOURCE>
    MOL_ID: 1;                                                            
   2 ORGANISM_SCIENTIFIC: ACINETOBACTER BAUMANNII;                        
   3 ORGANISM_TAXID: 470;                                                 
   4 GENE: AMPC, BAA1790NC_1053, EP550_05490, EP560_12590, EQH48_05445;   
   5 EXPRESSION_SYSTEM: ESCHERICHIA COLI BL21(DE3);                       
   6 EXPRESSION_SYSTEM_TAXID: 469008                                      

>  <KEYWDS>
    CEPHALASPORINASE, INHIBITOR, HYDROLASE, HYDROLASE-INHIBITOR COMPLEX   

>  <EXPDTA>
    X-RAY DIFFRACTION                                                     

>  <AUTHOR>
    M.C.FERNANDO,B.J.WALLAR,R.A.POWERS                                    

>  <REVDAT>
   1   05-APR-23 8CUP    0                                                

>  <JRNL>
      AUTH   L.M.INTROVIGNE,T.J.BEARDSLEY,M.C.FERNANDO,D.A.LEONARD,       
      AUTH 2 B.J.WALLAR,S.D.RUDIN,M.A.TARACILA,P.N.RATHER,J.M.COLQUHOUN,  
      AUTH 3 S.SONG,F.FINI,K.M.HUJER,A.M.HUJER,F.PRATI,R.A.POWERS,        
      AUTH 4 R.A.BONOMO,E.CASELLI                                         
      TITL   SULFONAMIDOBORONIC ACIDS AS "CROSS-CLASS" INHIBITORS OF AN   
      TITL 2 EXPANDED-SPECTRUM CLASS C CEPHALOSPORINASE, ADC-33, AND A    
      TITL 3 CLASS D CARBAPENEMASE, OXA-24/40: STRATEGIC COMPOUND DESIGN  
      TITL 4 TO COMBAT RESISTANCE IN ACINETOBACTER BAUMANNII              
      REF    ANTIBIOTICS                   V.  12   644 2023              
      REFN                   ESSN 2079-6382                               
      DOI    10.3390/ANTIBIOTICS12040644                                  

>  <REMARK>
   2                                                                      
   2 RESOLUTION.    1.54 ANGSTROMS.                                       
   3                                                                      
   3 REFINEMENT.                                                          
   3   PROGRAM     : PHENIX 1.19.2_4158                                   
   3   AUTHORS     : PAUL ADAMS,PAVEL AFONINE,VINCENT CHEN,IAN            
   3               : DAVIS,KRESHNA GOPAL,RALF GROSSE-KUNSTLEVE,           
   3               : LI-WEI HUNG,ROBERT IMMORMINO,TOM IOERGER,            
   3               : AIRLIE MCCOY,ERIK MCKEE,NIGEL MORIARTY,              
   3               : REETAL PAI,RANDY READ,JANE RICHARDSON,               
   3               : DAVID RICHARDSON,TOD ROMO,JIM SACCHETTINI,           
   3               : NICHOLAS SAUTER,JACOB SMITH,LAURENT                  
   3               : STORONI,TOM TERWILLIGER,PETER ZWART                  
   3                                                                      
   3    REFINEMENT TARGET : ML                                            
   3                                                                      
   3  DATA USED IN REFINEMENT.                                            
   3   RESOLUTION RANGE HIGH (ANGSTROMS) : 1.54                           
   3   RESOLUTION RANGE LOW  (ANGSTROMS) : 43.47                          
   3   MIN(FOBS/SIGMA_FOBS)              : 1.340                          
   3   COMPLETENESS FOR RANGE        (%) : 100.0                          
   3   NUMBER OF REFLECTIONS             : 110607                         
   3                                                                      
   3  FIT TO DATA USED IN REFINEMENT.                                     
   3   R VALUE     (WORKING + TEST SET) : 0.185                           
   3   R VALUE            (WORKING SET) : 0.184                           
   3   FREE R VALUE                     : 0.217                           
   3   FREE R VALUE TEST SET SIZE   (%) : 5.020                           
   3   FREE R VALUE TEST SET COUNT      : 5557                            
   3                                                                      
   3  FIT TO DATA USED IN REFINEMENT (IN BINS).                           
   3   BIN  RESOLUTION RANGE  COMPL.    NWORK NFREE   RWORK  RFREE        
   3     1 43.4700 -  4.7900    1.00     3813   188  0.1659 0.1878        
   3     2  4.7800 -  3.8000    1.00     3641   182  0.1346 0.1449        
   3     3  3.8000 -  3.3200    1.00     3577   185  0.1613 0.1888        
   3     4  3.3200 -  3.0100    1.00     3569   186  0.1741 0.1936        
   3     5  3.0100 -  2.8000    1.00     3541   187  0.1848 0.2446        
   3     6  2.8000 -  2.6300    1.00     3535   181  0.1777 0.2234        
   3     7  2.6300 -  2.5000    1.00     3524   187  0.1746 0.1861        
   3     8  2.5000 -  2.3900    1.00     3483   188  0.1717 0.2476        
   3     9  2.3900 -  2.3000    1.00     3498   197  0.1771 0.2078        
   3    10  2.3000 -  2.2200    1.00     3532   170  0.1720 0.1957        
   3    11  2.2200 -  2.1500    1.00     3466   184  0.1734 0.2188        
   3    12  2.1500 -  2.0900    1.00     3514   177  0.1753 0.2160        
   3    13  2.0900 -  2.0400    1.00     3489   185  0.2033 0.2644        
   3    14  2.0400 -  1.9900    1.00     3472   192  0.1996 0.2267        
   3    15  1.9900 -  1.9400    1.00     3481   200  0.1957 0.2189        
   3    16  1.9400 -  1.9000    1.00     3491   165  0.1936 0.2150        
   3    17  1.9000 -  1.8600    1.00     3439   191  0.2023 0.2699        
   3    18  1.8600 -  1.8300    1.00     3481   183  0.2028 0.2528        
   3    19  1.8300 -  1.7900    1.00     3466   198  0.2246 0.2561        
   3    20  1.7900 -  1.7600    1.00     3483   188  0.2266 0.2896        
   3    21  1.7600 -  1.7300    1.00     3434   168  0.2490 0.2952        
   3    22  1.7300 -  1.7100    1.00     3522   183  0.2674 0.3023        
   3    23  1.7100 -  1.6800    1.00     3430   189  0.2768 0.3484        
   3    24  1.6800 -  1.6600    1.00     3447   170  0.2879 0.3102        
   3    25  1.6600 -  1.6400    1.00     3511   177  0.2793 0.3271        
   3    26  1.6400 -  1.6200    1.00     3423   181  0.2802 0.3213        
   3    27  1.6200 -  1.6000    1.00     3445   189  0.2866 0.3104        
   3    28  1.6000 -  1.5800    1.00     3450   208  0.2937 0.3024        
   3    29  1.5800 -  1.5600    1.00     3433   186  0.2928 0.2914        
   3    30  1.5600 -  1.5400    1.00     3460   192  0.3184 0.3450        
   3                                                                      
   3  BULK SOLVENT MODELLING.                                             
   3   METHOD USED        : FLAT BULK SOLVENT MODEL                       
   3   SOLVENT RADIUS     : 1.11                                          
   3   SHRINKAGE RADIUS   : 0.90                                          
   3   K_SOL              : NULL                                          
   3   B_SOL              : NULL                                          
   3                                                                      
   3  ERROR ESTIMATES.                                                    
   3   COORDINATE ERROR (MAXIMUM-LIKELIHOOD BASED)     : 0.210            
   3   PHASE ERROR (DEGREES, MAXIMUM-LIKELIHOOD BASED) : 21.570           
   3                                                                      
   3  B VALUES.                                                           
   3   FROM WILSON PLOT           (A**2) : 20.86                          
   3   MEAN B VALUE      (OVERALL, A**2) : 26.48                          
   3   OVERALL ANISOTROPIC B VALUE.                                       
   3    B11 (A**2) : NULL                                                 
   3    B22 (A**2) : NULL                                                 
   3    B33 (A**2) : NULL                                                 
   3    B12 (A**2) : NULL                                                 
   3    B13 (A**2) : NULL                                                 
   3    B23 (A**2) : NULL                                                 
   3                                                                      
   3  TWINNING INFORMATION.                                               
   3   FRACTION: NULL                                                     
   3   OPERATOR: NULL                                                     
   3                                                                      
   3  DEVIATIONS FROM IDEAL VALUES.                                       
   3                 RMSD          COUNT                                  
   3   BOND      :   NULL           NULL                                  
   3   ANGLE     :   NULL           NULL                                  
   3   CHIRALITY :   NULL           NULL                                  
   3   PLANARITY :   NULL           NULL                                  
   3   DIHEDRAL  :   NULL           NULL                                  
   3                                                                      
   3  TLS DETAILS                                                         
   3   NUMBER OF TLS GROUPS  : NULL                                       
   3                                                                      
   3  NCS DETAILS                                                         
   3   NUMBER OF NCS GROUPS : NULL                                        
   3                                                                      
   3  OTHER REFINEMENT REMARKS: NULL                                      
   4                                                                      
   4 8CUP COMPLIES WITH FORMAT V. 3.30, 13-JUL-11                         
 100                                                                      
 100 THIS ENTRY HAS BEEN PROCESSED BY RCSB ON 19-MAY-22.                  
 100 THE DEPOSITION ID IS D_1000265475.                                   
 200                                                                      
 200 EXPERIMENTAL DETAILS                                                 
 200  EXPERIMENT TYPE                : X-RAY DIFFRACTION                  
 200  DATE OF DATA COLLECTION        : 13-NOV-20                          
 200  TEMPERATURE           (KELVIN) : 100                                
 200  PH                             : NULL                               
 200  NUMBER OF CRYSTALS USED        : 1                                  
 200                                                                      
 200  SYNCHROTRON              (Y/N) : Y                                  
 200  RADIATION SOURCE               : APS                                
 200  BEAMLINE                       : 21-ID-F                            
 200  X-RAY GENERATOR MODEL          : NULL                               
 200  MONOCHROMATIC OR LAUE    (M/L) : M                                  
 200  WAVELENGTH OR RANGE        (A) : .97872                             
 200  MONOCHROMATOR                  : NULL                               
 200  OPTICS                         : NULL                               
 200                                                                      
 200  DETECTOR TYPE                  : CCD                                
 200  DETECTOR MANUFACTURER          : RAYONIX MX-300                     
 200  INTENSITY-INTEGRATION SOFTWARE : XDS                                
 200  DATA SCALING SOFTWARE          : AIMLESS 0.7.4                      
 200                                                                      
 200  NUMBER OF UNIQUE REFLECTIONS   : 110715                             
 200  RESOLUTION RANGE HIGH      (A) : 1.540                              
 200  RESOLUTION RANGE LOW       (A) : 43.470                             
 200  REJECTION CRITERIA  (SIGMA(I)) : NULL                               
 200                                                                      
 200 OVERALL.                                                             
 200  COMPLETENESS FOR RANGE     (%) : 100.0                              
 200  DATA REDUNDANCY                : 7.200                              
 200  R MERGE                    (I) : 0.09400                            
 200  R SYM                      (I) : NULL                               
 200  <I/SIGMA(I)> FOR THE DATA SET  : 11.8000                            
 200                                                                      
 200 IN THE HIGHEST RESOLUTION SHELL.                                     
 200  HIGHEST RESOLUTION SHELL, RANGE HIGH (A) : 1.54                     
 200  HIGHEST RESOLUTION SHELL, RANGE LOW  (A) : 1.58                     
 200  COMPLETENESS FOR SHELL     (%) : 100.0                              
 200  DATA REDUNDANCY IN SHELL       : 7.30                               
 200  R MERGE FOR SHELL          (I) : 1.99000                            
 200  R SYM FOR SHELL            (I) : NULL                               
 200  <I/SIGMA(I)> FOR SHELL         : NULL                               
 200                                                                      
 200 DIFFRACTION PROTOCOL: SINGLE WAVELENGTH                              
 200 METHOD USED TO DETERMINE THE STRUCTURE: MOLECULAR REPLACEMENT        
 200 SOFTWARE USED: PHASER                                                
 200 STARTING MODEL: APO ADC-33                                           
 200                                                                      
 200 REMARK: NULL                                                         
 280                                                                      
 280 CRYSTAL                                                              
 280 SOLVENT CONTENT, VS   (%): 45.93                                     
 280 MATTHEWS COEFFICIENT, VM (ANGSTROMS**3/DA): 2.27                     
 280                                                                      
 280 CRYSTALLIZATION CONDITIONS: 25% W/V PEG 1500 0.1 M                   
 280  SUCCINATE/PHOSPHATE/GLYCINE BUFFER PH 5.0, VAPOR DIFFUSION,         
 280  HANGING DROP, TEMPERATURE 298K                                      
 290                                                                      
 290 CRYSTALLOGRAPHIC SYMMETRY                                            
 290 SYMMETRY OPERATORS FOR SPACE GROUP: P 21 21 21                       
 290                                                                      
 290      SYMOP   SYMMETRY                                                
 290     NNNMMM   OPERATOR                                                
 290       1555   X,Y,Z                                                   
 290       2555   -X+1/2,-Y,Z+1/2                                         
 290       3555   -X,Y+1/2,-Z+1/2                                         
 290       4555   X+1/2,-Y+1/2,-Z                                         
 290                                                                      
 290     WHERE NNN -> OPERATOR NUMBER                                     
 290           MMM -> TRANSLATION VECTOR                                  
 290                                                                      
 290 CRYSTALLOGRAPHIC SYMMETRY TRANSFORMATIONS                            
 290 THE FOLLOWING TRANSFORMATIONS OPERATE ON THE ATOM/HETATM             
 290 RECORDS IN THIS ENTRY TO PRODUCE CRYSTALLOGRAPHICALLY                
 290 RELATED MOLECULES.                                                   
 290   SMTRY1   1  1.000000  0.000000  0.000000        0.00000            
 290   SMTRY2   1  0.000000  1.000000  0.000000        0.00000            
 290   SMTRY3   1  0.000000  0.000000  1.000000        0.00000            
 290   SMTRY1   2 -1.000000  0.000000  0.000000       21.64500            
 290   SMTRY2   2  0.000000 -1.000000  0.000000        0.00000            
 290   SMTRY3   2  0.000000  0.000000  1.000000      101.69000            
 290   SMTRY1   3 -1.000000  0.000000  0.000000        0.00000            
 290   SMTRY2   3  0.000000  1.000000  0.000000       41.91000            
 290   SMTRY3   3  0.000000  0.000000 -1.000000      101.69000            
 290   SMTRY1   4  1.000000  0.000000  0.000000       21.64500            
 290   SMTRY2   4  0.000000 -1.000000  0.000000       41.91000            
 290   SMTRY3   4  0.000000  0.000000 -1.000000        0.00000            
 290                                                                      
 290 REMARK: NULL                                                         
 300                                                                      
 300 BIOMOLECULE: 1, 2                                                    
 300 SEE REMARK 350 FOR THE AUTHOR PROVIDED AND/OR PROGRAM                
 300 GENERATED ASSEMBLY INFORMATION FOR THE STRUCTURE IN                  
 300 THIS ENTRY. THE REMARK MAY ALSO PROVIDE INFORMATION ON               
 300 BURIED SURFACE AREA.                                                 
 350                                                                      
 350 COORDINATES FOR A COMPLETE MULTIMER REPRESENTING THE KNOWN           
 350 BIOLOGICALLY SIGNIFICANT OLIGOMERIZATION STATE OF THE                
 350 MOLECULE CAN BE GENERATED BY APPLYING BIOMT TRANSFORMATIONS          
 350 GIVEN BELOW.  BOTH NON-CRYSTALLOGRAPHIC AND                          
 350 CRYSTALLOGRAPHIC OPERATIONS ARE GIVEN.                               
 350                                                                      
 350 BIOMOLECULE: 1                                                       
 350 AUTHOR DETERMINED BIOLOGICAL UNIT: MONOMERIC                         
 350 SOFTWARE DETERMINED QUATERNARY STRUCTURE: MONOMERIC                  
 350 SOFTWARE USED: PISA                                                  
 350 APPLY THE FOLLOWING TO CHAINS: B                                     
 350   BIOMT1   1  1.000000  0.000000  0.000000        0.00000            
 350   BIOMT2   1  0.000000  1.000000  0.000000        0.00000            
 350   BIOMT3   1  0.000000  0.000000  1.000000        0.00000            
 350                                                                      
 350 BIOMOLECULE: 2                                                       
 350 AUTHOR DETERMINED BIOLOGICAL UNIT: MONOMERIC                         
 350 SOFTWARE DETERMINED QUATERNARY STRUCTURE: MONOMERIC                  
 350 SOFTWARE USED: PISA                                                  
 350 APPLY THE FOLLOWING TO CHAINS: A                                     
 350   BIOMT1   1  1.000000  0.000000  0.000000        0.00000            
 350   BIOMT2   1  0.000000  1.000000  0.000000        0.00000            
 350   BIOMT3   1  0.000000  0.000000  1.000000        0.00000            
 465                                                                      
 465 MISSING RESIDUES                                                     
 465 THE FOLLOWING RESIDUES WERE NOT LOCATED IN THE                       
 465 EXPERIMENT. (M=MODEL NUMBER; RES=RESIDUE NAME; C=CHAIN               
 465 IDENTIFIER; SSSEQ=SEQUENCE NUMBER; I=INSERTION CODE.)                
 465                                                                      
 465   M RES C SSSEQI                                                     
 465     MET B    -1                                                      
 465     GLY B     0                                                      
 465     MET A    -1                                                      
 465     GLY A     0                                                      
 465     ASN A     1                                                      
 465     LYS A   360                                                      
 470                                                                      
 470 MISSING ATOM                                                         
 470 THE FOLLOWING RESIDUES HAVE MISSING ATOMS (M=MODEL NUMBER;           
 470 RES=RESIDUE NAME; C=CHAIN IDENTIFIER; SSEQ=SEQUENCE NUMBER;          
 470 I=INSERTION CODE):                                                   
 470   M RES CSSEQI  ATOMS                                                
 470     GLU B  21    CG   CD   OE1  OE2                                  
 470     GLU B 124    CG   CD   OE1  OE2                                  
 470     ASP B 128    CG   OD1  OD2                                       
 470     LYS B 139    CG   CD   CE   NZ                                   
 470     LYS B 185    CG   CD   CE   NZ                                   
 470     LYS B 193    CG   CD   CE   NZ                                   
 470     ASN B 213    CG   OD1  ND2                                       
 470     ARG B 214    CG   CD   NE   CZ   NH1  NH2                        
 470     ARG B 251    CG   CD   NE   CZ   NH1  NH2                        
 470     GLU B 290    CG   CD   OE1  OE2                                  
 470     LYS B 360    CG   CD   CE   NZ                                   
 470     LYS A   4    CG   CD   CE   NZ                                   
 470     ASP A   5    CG   OD1  OD2                                       
 470     GLN A   6    CG   CD   OE1  NE2                                  
 470     GLU A  21    CG   CD   OE1  OE2                                  
 470     ASN A  36    CG   OD1  ND2                                       
 470     LYS A  37    CG   CD   CE   NZ                                   
 470     LYS A  94    CG   CD   CE   NZ                                   
 470     LYS A  97    CG   CD   CE   NZ                                   
 470     GLU A 124    CG   CD   OE1  OE2                                  
 470     LYS A 126    CG   CD   CE   NZ                                   
 470     THR A 127    OG1  CG2                                            
 470     ASP A 128    CG   OD1  OD2                                       
 470     LYS A 185    CG   CD   CE   NZ                                   
 470     GLN A 205    CG   CD   OE1  NE2                                  
 470     ASN A 213    CG   OD1  ND2                                       
 470     ARG A 214    CG   CD   NE   CZ   NH1  NH2                        
 470     LEU A 217    CG   CD1  CD2                                       
 470     SER A 303    OG                                                  
 470     LYS A 304    CG   CD   CE   NZ                                   
 470     GLU A 305    CG   CD   OE1  OE2                                  
 470     SER A 307    OG                                                  
 470     LYS A 329    CG   CD   CE   NZ                                   
 470     GLU A 345    CG   CD   OE1  OE2                                  
 470     LYS A 359    CG   CD   CE   NZ                                   
 500                                                                      
 500 GEOMETRY AND STEREOCHEMISTRY                                         
 500 SUBTOPIC: CLOSE CONTACTS IN SAME ASYMMETRIC UNIT                     
 500                                                                      
 500 THE FOLLOWING ATOMS ARE IN CLOSE CONTACT.                            
 500                                                                      
 500  ATM1  RES C  SSEQI   ATM2  RES C  SSEQI           DISTANCE          
 500   OG   SER B    64     O20  OZF B   401              2.08            
 500   O    HOH B   516     O    HOH B   652              2.17            
 500                                                                      
 500 REMARK: NULL                                                         
 500                                                                      
 500 GEOMETRY AND STEREOCHEMISTRY                                         
 500 SUBTOPIC: TORSION ANGLES                                             
 500                                                                      
 500 TORSION ANGLES OUTSIDE THE EXPECTED RAMACHANDRAN REGIONS:            
 500 (M=MODEL NUMBER; RES=RESIDUE NAME; C=CHAIN IDENTIFIER;               
 500 SSEQ=SEQUENCE NUMBER; I=INSERTION CODE).                             
 500                                                                      
 500 STANDARD TABLE:                                                      
 500 FORMAT:(10X,I3,1X,A3,1X,A1,I4,A1,4X,F7.2,3X,F7.2)                    
 500                                                                      
 500 EXPECTED VALUES: GJ KLEYWEGT AND TA JONES (1996). PHI/PSI-           
 500 CHOLOGY: RAMACHANDRAN REVISITED. STRUCTURE 4, 1395 - 1400            
 500                                                                      
 500  M RES CSSEQI        PSI       PHI                                   
 500    ASP B 102        6.60    -69.62                                   
 500    TYR B 112       31.25     72.75                                   
 500    ASN B 116       47.84   -161.17                                   
 500    LYS B 141      -79.02   -104.61                                   
 500    ASN B 213      -26.34   -143.74                                   
 500    TYR B 223       22.75   -155.81                                   
 500    ASN B 264     -124.69     54.47                                   
 500    SER B 303      -63.19   -101.73                                   
 500    ASP A 102        0.24    -69.55                                   
 500    TYR A 112       30.65     71.28                                   
 500    ASN A 116       50.23   -158.98                                   
 500    LYS A 126      -40.61   -154.03                                   
 500    LYS A 141      -86.64   -123.58                                   
 500    HIS A 186       47.47   -144.51                                   
 500    PRO A 216     -163.40    -74.52                                   
 500    TYR A 223       21.56   -157.35                                   
 500    ASN A 264     -125.29     54.35                                   
 500    SER A 303      -71.58    -74.20                                   
 500                                                                      
 500 REMARK: NULL                                                         
 525                                                                      
 525 SOLVENT                                                              
 525                                                                      
 525 THE SOLVENT MOLECULES HAVE CHAIN IDENTIFIERS THAT                    
 525 INDICATE THE POLYMER CHAIN WITH WHICH THEY ARE MOST                  
 525 CLOSELY ASSOCIATED. THE REMARK LISTS ALL THE SOLVENT                 
 525 MOLECULES WHICH ARE MORE THAN 5A AWAY FROM THE                       
 525 NEAREST POLYMER CHAIN (M = MODEL NUMBER;                             
 525 RES=RESIDUE NAME; C=CHAIN IDENTIFIER; SSEQ=SEQUENCE                  
 525 NUMBER; I=INSERTION CODE):                                           
 525                                                                      
 525  M RES CSSEQI                                                        
 525    HOH A 814        DISTANCE =  5.88 ANGSTROMS                       
 610                                                                      
 610 MISSING HETEROATOM                                                   
 610 THE FOLLOWING RESIDUES HAVE MISSING ATOMS (M=MODEL NUMBER;           
 610 RES=RESIDUE NAME; C=CHAIN IDENTIFIER; SSEQ=SEQUENCE NUMBER;          
 610 I=INSERTION CODE):                                                   
 610   M RES C SSEQI                                                      
 610     OZF B  401                                                       

>  <DBREF>
 8CUP B    0   360  UNP    A7Y407   A7Y407_ACIBA    24    384             
 8CUP A    0   360  UNP    A7Y407   A7Y407_ACIBA    24    384             

>  <SEQADV>
 8CUP MET B   -1  UNP  A7Y407              INITIATING METHIONINE          
 8CUP MET A   -1  UNP  A7Y407              INITIATING METHIONINE          

>  <SEQRES>
   1 B  362  MET GLY ASN THR PRO LYS ASP GLN GLU ILE LYS LYS LEU          
   2 B  362  VAL ASP GLN ASN PHE LYS PRO LEU LEU GLU LYS TYR ASP          
   3 B  362  VAL PRO GLY MET ALA VAL GLY VAL ILE GLN ASN ASN LYS          
   4 B  362  LYS TYR GLU MET TYR TYR GLY LEU GLN SER VAL GLN ASP          
   5 B  362  LYS LYS ALA VAL ASN SER SER THR ILE PHE GLU LEU GLY          
   6 B  362  SER VAL SER LYS LEU PHE THR ALA THR ALA GLY GLY TYR          
   7 B  362  ALA LYS ASN LYS GLY LYS ILE SER PHE ASP ASP THR PRO          
   8 B  362  GLY LYS TYR TRP LYS GLU LEU LYS ASN THR PRO ILE ASP          
   9 B  362  GLN VAL ASN LEU LEU GLN LEU ALA THR TYR THR SER GLY          
  10 B  362  ASN LEU ALA LEU GLN PHE PRO ASP GLU VAL LYS THR ASP          
  11 B  362  GLN GLN VAL LEU THR PHE PHE LYS ASP TRP LYS PRO LYS          
  12 B  362  ASN SER ILE GLY GLU TYR ARG GLN TYR SER ASN PRO SER          
  13 B  362  ILE GLY LEU PHE GLY LYS VAL VAL ALA LEU SER MET ASN          
  14 B  362  LYS PRO PHE ASP GLN VAL LEU GLU LYS THR ILE PHE PRO          
  15 B  362  ALA LEU GLY LEU LYS HIS SER TYR VAL ASN VAL PRO LYS          
  16 B  362  THR GLN MET GLN ASN TYR ALA PHE GLY TYR ASN GLN GLU          
  17 B  362  ASN GLN PRO ILE ARG VAL ASN ARG GLY PRO LEU ASP ALA          
  18 B  362  ALA PRO ALA TYR GLY VAL LYS SER THR LEU PRO ASP MET          
  19 B  362  LEU SER PHE ILE HIS ALA ASN LEU ASN PRO GLN LYS TYR          
  20 B  362  PRO ALA ASP ILE GLN ARG ALA ILE ASN GLU THR HIS GLN          
  21 B  362  GLY ARG TYR GLN VAL ASN THR MET TYR GLN ALA LEU GLY          
  22 B  362  TRP GLU GLU PHE SER TYR PRO ALA THR LEU GLN THR LEU          
  23 B  362  LEU ASP SER ASN SER GLU GLN ILE VAL MET LYS PRO ASN          
  24 B  362  LYS VAL THR ALA ILE SER LYS GLU PRO SER VAL LYS MET          
  25 B  362  TYR HIS LYS THR GLY SER THR ASN GLY PHE GLY THR TYR          
  26 B  362  VAL VAL PHE ILE PRO LYS GLU ASN ILE GLY LEU VAL MET          
  27 B  362  LEU THR ASN LYS ARG ILE PRO ASN GLU GLU ARG ILE LYS          
  28 B  362  ALA ALA TYR ALA VAL LEU ASN ALA ILE LYS LYS                  
   1 A  362  MET GLY ASN THR PRO LYS ASP GLN GLU ILE LYS LYS LEU          
   2 A  362  VAL ASP GLN ASN PHE LYS PRO LEU LEU GLU LYS TYR ASP          
   3 A  362  VAL PRO GLY MET ALA VAL GLY VAL ILE GLN ASN ASN LYS          
   4 A  362  LYS TYR GLU MET TYR TYR GLY LEU GLN SER VAL GLN ASP          
   5 A  362  LYS LYS ALA VAL ASN SER SER THR ILE PHE GLU LEU GLY          
   6 A  362  SER VAL SER LYS LEU PHE THR ALA THR ALA GLY GLY TYR          
   7 A  362  ALA LYS ASN LYS GLY LYS ILE SER PHE ASP ASP THR PRO          
   8 A  362  GLY LYS TYR TRP LYS GLU LEU LYS ASN THR PRO ILE ASP          
   9 A  362  GLN VAL ASN LEU LEU GLN LEU ALA THR TYR THR SER GLY          
  10 A  362  ASN LEU ALA LEU GLN PHE PRO ASP GLU VAL LYS THR ASP          
  11 A  362  GLN GLN VAL LEU THR PHE PHE LYS ASP TRP LYS PRO LYS          
  12 A  362  ASN SER ILE GLY GLU TYR ARG GLN TYR SER ASN PRO SER          
  13 A  362  ILE GLY LEU PHE GLY LYS VAL VAL ALA LEU SER MET ASN          
  14 A  362  LYS PRO PHE ASP GLN VAL LEU GLU LYS THR ILE PHE PRO          
  15 A  362  ALA LEU GLY LEU LYS HIS SER TYR VAL ASN VAL PRO LYS          
  16 A  362  THR GLN MET GLN ASN TYR ALA PHE GLY TYR ASN GLN GLU          
  17 A  362  ASN GLN PRO ILE ARG VAL ASN ARG GLY PRO LEU ASP ALA          
  18 A  362  ALA PRO ALA TYR GLY VAL LYS SER THR LEU PRO ASP MET          
  19 A  362  LEU SER PHE ILE HIS ALA ASN LEU ASN PRO GLN LYS TYR          
  20 A  362  PRO ALA ASP ILE GLN ARG ALA ILE ASN GLU THR HIS GLN          
  21 A  362  GLY ARG TYR GLN VAL ASN THR MET TYR GLN ALA LEU GLY          
  22 A  362  TRP GLU GLU PHE SER TYR PRO ALA THR LEU GLN THR LEU          
  23 A  362  LEU ASP SER ASN SER GLU GLN ILE VAL MET LYS PRO ASN          
  24 A  362  LYS VAL THR ALA ILE SER LYS GLU PRO SER VAL LYS MET          
  25 A  362  TYR HIS LYS THR GLY SER THR ASN GLY PHE GLY THR TYR          
  26 A  362  VAL VAL PHE ILE PRO LYS GLU ASN ILE GLY LEU VAL MET          
  27 A  362  LEU THR ASN LYS ARG ILE PRO ASN GLU GLU ARG ILE LYS          
  28 A  362  ALA ALA TYR ALA VAL LEU ASN ALA ILE LYS LYS                  

>  <HET>
 OZF  B 401      15                                                       
 OZF  A 401      24                                                       

>  <HETNAM>
     OZF 3-[(4S)-4-ETHYL-5,7,7-TRIHYDROXY-2,2,7-TRIOXO-6-OXA-             
   2 OZF  2LAMBDA~6~-THIA-3-AZA-7LAMBDA~5~-PHOSPHA-5-BORAHEPTAN-          
   3 OZF  1-YL]BENZOIC ACID                                               

>  <FORMUL>
   3  OZF    2(C11 H17 B N O9 P S)                                        
   5  HOH   *688(H2 O)                                                    

>  <HELIX>
   1 AA1 PRO B    3  PHE B   16  1                                  14    
   2 AA2 PHE B   16  ASP B   24  1                                   9    
   3 AA3 VAL B   65  LYS B   80  1                                  16    
   4 AA4 THR B   88  TYR B   92  5                                   5    
   5 AA5 TRP B   93  LYS B   97  5                                   5    
   6 AA6 THR B   99  VAL B  104  5                                   6    
   7 AA7 ASN B  105  THR B  111  1                                   7    
   8 AA8 THR B  127  ASP B  137  1                                  11    
   9 AA9 SER B  151  MET B  166  1                                  16    
  10 AB1 PRO B  169  THR B  177  1                                   9    
  11 AB2 THR B  177  LEU B  182  1                                   6    
  12 AB3 PRO B  192  TYR B  199  5                                   8    
  13 AB4 PRO B  216  ASP B  218  5                                   3    
  14 AB5 ALA B  219  GLY B  224  1                                   6    
  15 AB6 THR B  228  ASN B  241  1                                  14    
  16 AB7 PRO B  242  TYR B  245  5                                   4    
  17 AB8 PRO B  246  GLN B  258  1                                  13    
  18 AB9 THR B  280  SER B  287  1                                   8    
  19 AC1 SER B  289  LYS B  295  1                                   7    
  20 AC2 PRO B  328  GLU B  330  5                                   3    
  21 AC3 PRO B  343  ILE B  358  1                                  16    
  22 AC4 PRO A    3  PHE A   16  1                                  14    
  23 AC5 PHE A   16  ASP A   24  1                                   9    
  24 AC6 VAL A   65  LYS A   80  1                                  16    
  25 AC7 THR A   88  TYR A   92  5                                   5    
  26 AC8 TRP A   93  LYS A   97  5                                   5    
  27 AC9 THR A   99  VAL A  104  5                                   6    
  28 AD1 ASN A  105  THR A  111  1                                   7    
  29 AD2 THR A  127  TRP A  138  1                                  12    
  30 AD3 SER A  151  MET A  166  1                                  16    
  31 AD4 PRO A  169  THR A  177  1                                   9    
  32 AD5 THR A  177  LEU A  182  1                                   6    
  33 AD6 PRO A  192  TYR A  199  5                                   8    
  34 AD7 ASP A  218  GLY A  224  1                                   7    
  35 AD8 LEU A  229  ASN A  241  1                                  13    
  36 AD9 PRO A  242  TYR A  245  5                                   4    
  37 AE1 PRO A  246  THR A  256  1                                  11    
  38 AE2 THR A  280  SER A  287  1                                   8    
  39 AE3 SER A  289  LYS A  295  1                                   7    
  40 AE4 PRO A  328  GLU A  330  5                                   3    
  41 AE5 PRO A  343  ILE A  358  1                                  16    

>  <SHEET>
   1 AA1 9 LYS B  52  ALA B  53  0                                        
   2 AA1 9 LYS B  37  SER B  47 -1  N  GLN B  46   O  LYS B  52           
   3 AA1 9 GLY B  27  GLN B  34 -1  N  MET B  28   O  TYR B  43           
   4 AA1 9 ILE B 332  THR B 338 -1  O  LEU B 337   N  ALA B  29           
   5 AA1 9 PHE B 320  ILE B 327 -1  N  ILE B 327   O  ILE B 332           
   6 AA1 9 LYS B 309  THR B 317 -1  N  GLY B 315   O  THR B 322           
   7 AA1 9 GLU B 273  SER B 276 -1  N  PHE B 275   O  MET B 310           
   8 AA1 9 MET B 266  GLN B 268 -1  N  TYR B 267   O  GLU B 274           
   9 AA1 9 TYR B 261  VAL B 263 -1  N  VAL B 263   O  MET B 266           
   1 AA2 2 PHE B  60  GLU B  61  0                                        
   2 AA2 2 LYS B 226  SER B 227 -1  O  SER B 227   N  PHE B  60           
   1 AA3 2 TYR B 147  ARG B 148  0                                        
   2 AA3 2 ASN B 297  LYS B 298 -1  O  ASN B 297   N  ARG B 148           
   1 AA4 2 GLY B 202  TYR B 203  0                                        
   2 AA4 2 PRO B 209  ILE B 210 -1  O  ILE B 210   N  GLY B 202           
   1 AA5 9 LYS A  52  ALA A  53  0                                        
   2 AA5 9 LYS A  37  SER A  47 -1  N  GLN A  46   O  LYS A  52           
   3 AA5 9 GLY A  27  GLN A  34 -1  N  MET A  28   O  TYR A  43           
   4 AA5 9 ILE A 332  THR A 338 -1  O  LEU A 337   N  ALA A  29           
   5 AA5 9 GLY A 321  ILE A 327 -1  N  ILE A 327   O  ILE A 332           
   6 AA5 9 LYS A 309  SER A 316 -1  N  GLY A 315   O  THR A 322           
   7 AA5 9 GLU A 273  SER A 276 -1  N  PHE A 275   O  MET A 310           
   8 AA5 9 MET A 266  GLN A 268 -1  N  TYR A 267   O  GLU A 274           
   9 AA5 9 TYR A 261  VAL A 263 -1  N  VAL A 263   O  MET A 266           
   1 AA6 2 ILE A  59  GLU A  61  0                                        
   2 AA6 2 LYS A 226  THR A 228 -1  O  SER A 227   N  PHE A  60           
   1 AA7 2 TYR A 147  ARG A 148  0                                        
   2 AA7 2 ASN A 297  LYS A 298 -1  O  ASN A 297   N  ARG A 148           
   1 AA8 2 GLY A 202  TYR A 203  0                                        
   2 AA8 2 PRO A 209  ILE A 210 -1  O  ILE A 210   N  GLY A 202           

>  <LINK>
       OG  SER B  64                 B18 OZF B 401     1555   1555  1.45  
       OG  SER A  64                 B18 OZF A 401     1555   1555  1.45  

>  <CISPEP>
   1 TYR B  277    PRO B  278          0        -0.68                     
   2 TYR A  277    PRO A  278          0         4.98                     

>  <ORIGX1>
      1.000000  0.000000  0.000000        0.00000                         

>  <ORIGX2>
      0.000000  1.000000  0.000000        0.00000                         

>  <ORIGX3>
      0.000000  0.000000  1.000000        0.00000                         

>  <SCALE1>
      0.023100  0.000000  0.000000        0.00000                         

>  <SCALE2>
      0.000000  0.011930  0.000000        0.00000                         

>  <SCALE3>
      0.000000  0.000000  0.004917        0.00000                         

>  <MASTER>
      348    0    2   41   30    0    0    6 6305    2   41   56          

$$$$
