start_structures/Ligand_Substrate/Ligand_Complex_Stripped/OZO_8CUQ.pdb
 OpenBabel08222315203D

 30 30  0  0  1  0  0  0  0  0999 V2000
  -10.2060    7.0190  -81.1550 N   0  0  0  0  0  0  0  0  0  0  0  0
  -10.0050    7.6080  -82.4760 C   0  0  2  0  0  0  0  0  0  0  0  0
  -11.1470    7.3500  -83.4420 C   0  0  0  0  0  0  0  0  0  0  0  0
  -11.1470    7.9600  -84.5120 O   0  0  0  0  0  0  0  0  0  0  0  0
   -8.6990    7.0740  -83.0970 C   0  0  0  0  0  0  0  0  0  0  0  0
   -7.5840    7.6050  -82.4260 O   0  0  0  0  0  0  0  0  0  0  0  0
   -5.0840   11.1490  -74.9290 C   0  0  0  0  0  0  0  0  0  0  0  0
   -6.9140    8.8960  -72.4680 C   0  0  0  0  0  0  0  0  0  0  0  0
   -6.3630    9.4870  -73.7600 C   0  0  0  0  0  0  0  0  0  0  0  0
   -5.5870   10.6360  -73.7360 C   0  0  0  0  0  0  0  0  0  0  0  0
   -5.3550   10.5260  -76.1420 C   0  0  0  0  0  0  0  0  0  0  0  0
   -6.6340    8.8690  -74.9620 C   0  0  0  0  0  0  0  0  0  0  0  0
   -6.8290    6.6490  -81.6480 B   0  0  1  0  0  0  0  0  0  0  0  0
   -3.4060    7.1650  -81.3320 C   0  0  0  0  0  0  0  0  0  0  0  0
   -4.6410    8.0170  -81.6580 C   0  0  0  0  0  0  0  0  0  0  0  0
   -5.8890    7.6470  -80.8440 C   0  0  2  0  0  0  0  0  0  0  0  0
   -6.4940    8.6580  -77.4600 C   0  0  0  0  0  0  0  0  0  0  0  0
   -6.1360    9.3730  -76.1530 C   0  0  0  0  0  0  0  0  0  0  0  0
   -5.4490    7.0320  -79.5910 N   0  0  0  0  0  0  0  0  0  0  0  0
   -4.1730    7.3160  -77.2810 O   0  0  0  0  0  0  0  0  0  0  0  0
   -4.1340    9.1160  -78.6970 O   0  0  0  0  0  0  0  0  0  0  0  0
   -7.3010    7.6910  -72.4530 O   0  0  0  0  0  0  0  0  0  0  0  0
   -6.9590    9.6100  -71.4240 O   0  0  0  0  0  0  0  0  0  0  0  0
   -7.7030    6.0890  -80.7860 O   0  0  0  0  0  0  0  0  0  0  0  0
   -6.0270    5.6220  -81.9440 O   0  0  0  0  0  0  0  0  0  0  0  0
   -4.5940    4.1160  -83.3740 O   0  0  0  0  0  0  0  0  0  0  0  0
   -6.7100    3.3860  -82.9480 O   0  0  0  0  0  0  0  0  0  0  0  0
   -6.4570    5.3630  -84.6170 O   0  0  0  0  0  0  0  0  0  0  0  0
   -5.9710    4.6120  -83.2350 P   0  0  0  0  0  0  0  0  0  0  0  0
   -5.0040    8.0270  -78.2510 S   0  0  0  0  0  0  0  0  0  0  0  0
  2  1  1  1  0  0  0
  3  2  1  0  0  0  0
  4  3  2  0  0  0  0
  5  2  1  0  0  0  0
  5  6  1  0  0  0  0
  6 13  1  0  0  0  0
  7 10  2  0  0  0  0
  7 11  1  0  0  0  0
  8  9  1  0  0  0  0
  8 22  2  0  0  0  0
  8 23  1  0  0  0  0
  9 10  1  0  0  0  0
  9 12  2  0  0  0  0
 11 18  2  0  0  0  0
 12 18  1  0  0  0  0
 13 16  1  0  0  0  0
 13 24  1  1  0  0  0
 13 25  1  0  0  0  0
 14 15  1  0  0  0  0
 16 15  1  6  0  0  0
 16 19  1  0  0  0  0
 17 18  1  0  0  0  0
 17 30  1  0  0  0  0
 19 30  1  0  0  0  0
 20 30  2  0  0  0  0
 21 30  2  0  0  0  0
 25 29  1  0  0  0  0
 26 29  2  0  0  0  0
 27 29  1  0  0  0  0
 28 29  1  0  0  0  0
M  END
>  <HEADER>
    HYDROLASE/INHIBITOR                     17-MAY-22   8CUQ              

>  <TITLE>
    X-RAY CRYSTAL STRUCTURE OF ADC-33 IN COMPLEX WITH SULFONAMIDOBORONIC  
   2 ACID 6E                                                              

>  <COMPND>
    MOL_ID: 1;                                                            
   2 MOLECULE: BETA-LACTAMASE;                                            
   3 CHAIN: B, A;                                                         
   4 EC: 3.5.2.6;                                                         
   5 ENGINEERED: YES                                                      

>  <SOURCE>
    MOL_ID: 1;                                                            
   2 ORGANISM_SCIENTIFIC: ACINETOBACTER BAUMANNII;                        
   3 ORGANISM_TAXID: 470;                                                 
   4 GENE: AMPC, BAA1790NC_1053, EP550_05490, EP560_12590, EQH48_05445;   
   5 EXPRESSION_SYSTEM: ESCHERICHIA COLI BL21(DE3);                       
   6 EXPRESSION_SYSTEM_TAXID: 469008                                      

>  <KEYWDS>
    CEPHALASPORINASE, INHIBITOR, HYDROLASE, HYDROLASE-INHIBITOR COMPLEX   

>  <EXPDTA>
    X-RAY DIFFRACTION                                                     

>  <AUTHOR>
    M.C.FERNANDO,B.J.WALLAR,R.A.POWERS                                    

>  <REVDAT>
   1   05-APR-23 8CUQ    0                                                

>  <JRNL>
      AUTH   L.M.INTROVIGNE,T.J.BEARDSLEY,M.C.FERNANDO,D.A.LEONARD,       
      AUTH 2 B.J.WALLAR,S.D.RUDIN,M.A.TARACILA,P.N.RATHER,J.M.COLQUHOUN,  
      AUTH 3 S.SONG,F.FINI,K.M.HUJER,A.M.HUJER,F.PRATI,R.A.POWERS,        
      AUTH 4 R.A.BONOMO,E.CASELLI                                         
      TITL   SULFONAMIDOBORONIC ACIDS AS "CROSS-CLASS" INHIBITORS OF AN   
      TITL 2 EXPANDED-SPECTRUM CLASS C CEPHALOSPORINASE, ADC-33, AND A    
      TITL 3 CLASS D CARBAPENEMASE, OXA-24/40: STRATEGIC COMPOUND DESIGN  
      TITL 4 TO COMBAT RESISTANCE IN ACINETOBACTER BAUMANNII              
      REF    ANTIBIOTICS                   V.  12   644 2023              
      REFN                   ESSN 2079-6382                               
      DOI    10.3390/ANTIBIOTICS12040644                                  

>  <REMARK>
   2                                                                      
   2 RESOLUTION.    1.55 ANGSTROMS.                                       
   3                                                                      
   3 REFINEMENT.                                                          
   3   PROGRAM     : PHENIX 1.19.2_4158                                   
   3   AUTHORS     : PAUL ADAMS,PAVEL AFONINE,VINCENT CHEN,IAN            
   3               : DAVIS,KRESHNA GOPAL,RALF GROSSE-KUNSTLEVE,           
   3               : LI-WEI HUNG,ROBERT IMMORMINO,TOM IOERGER,            
   3               : AIRLIE MCCOY,ERIK MCKEE,NIGEL MORIARTY,              
   3               : REETAL PAI,RANDY READ,JANE RICHARDSON,               
   3               : DAVID RICHARDSON,TOD ROMO,JIM SACCHETTINI,           
   3               : NICHOLAS SAUTER,JACOB SMITH,LAURENT                  
   3               : STORONI,TOM TERWILLIGER,PETER ZWART                  
   3                                                                      
   3    REFINEMENT TARGET : ML                                            
   3                                                                      
   3  DATA USED IN REFINEMENT.                                            
   3   RESOLUTION RANGE HIGH (ANGSTROMS) : 1.55                           
   3   RESOLUTION RANGE LOW  (ANGSTROMS) : 51.12                          
   3   MIN(FOBS/SIGMA_FOBS)              : 1.340                          
   3   COMPLETENESS FOR RANGE        (%) : 100.0                          
   3   NUMBER OF REFLECTIONS             : 109221                         
   3                                                                      
   3  FIT TO DATA USED IN REFINEMENT.                                     
   3   R VALUE     (WORKING + TEST SET) : 0.187                           
   3   R VALUE            (WORKING SET) : 0.186                           
   3   FREE R VALUE                     : 0.213                           
   3   FREE R VALUE TEST SET SIZE   (%) : 4.950                           
   3   FREE R VALUE TEST SET COUNT      : 5402                            
   3                                                                      
   3  FIT TO DATA USED IN REFINEMENT (IN BINS).                           
   3   BIN  RESOLUTION RANGE  COMPL.    NWORK NFREE   RWORK  RFREE        
   3     1 51.1200 -  4.8100    1.00     3744   191  0.1570 0.1599        
   3     2  4.8100 -  3.8200    1.00     3614   182  0.1375 0.1650        
   3     3  3.8200 -  3.3400    1.00     3537   169  0.1636 0.1726        
   3     4  3.3400 -  3.0300    1.00     3535   168  0.1884 0.2207        
   3     5  3.0300 -  2.8200    1.00     3508   184  0.1914 0.2256        
   3     6  2.8200 -  2.6500    1.00     3485   196  0.1975 0.2501        
   3     7  2.6500 -  2.5200    1.00     3458   195  0.1931 0.2193        
   3     8  2.5200 -  2.4100    1.00     3436   181  0.1843 0.2014        
   3     9  2.4100 -  2.3200    1.00     3503   182  0.1852 0.2168        
   3    10  2.3200 -  2.2400    1.00     3469   166  0.1867 0.2223        
   3    11  2.2400 -  2.1700    1.00     3399   204  0.1789 0.2264        
   3    12  2.1700 -  2.1000    1.00     3466   195  0.1855 0.2221        
   3    13  2.1000 -  2.0500    1.00     3425   160  0.1938 0.2308        
   3    14  2.0500 -  2.0000    1.00     3499   176  0.1996 0.2371        
   3    15  2.0000 -  1.9500    1.00     3418   183  0.2019 0.2558        
   3    16  1.9500 -  1.9100    1.00     3477   161  0.1969 0.2093        
   3    17  1.9100 -  1.8700    1.00     3411   187  0.2035 0.2245        
   3    18  1.8700 -  1.8400    1.00     3460   177  0.2079 0.2382        
   3    19  1.8400 -  1.8000    1.00     3355   200  0.2134 0.2518        
   3    20  1.8000 -  1.7700    1.00     3455   190  0.2203 0.2570        
   3    21  1.7700 -  1.7500    1.00     3393   197  0.2331 0.2577        
   3    22  1.7500 -  1.7200    1.00     3421   155  0.2465 0.2684        
   3    23  1.7200 -  1.6900    1.00     3486   183  0.2565 0.3028        
   3    24  1.6900 -  1.6700    1.00     3370   173  0.2593 0.2831        
   3    25  1.6700 -  1.6500    1.00     3456   163  0.2683 0.2782        
   3    26  1.6500 -  1.6300    1.00     3457   159  0.2967 0.3351        
   3    27  1.6300 -  1.6100    1.00     3367   153  0.2896 0.3157        
   3    28  1.6100 -  1.5900    1.00     3450   203  0.3064 0.3503        
   3    29  1.5900 -  1.5700    1.00     3417   177  0.3160 0.3445        
   3    30  1.5700 -  1.5500    1.00     3348   192  0.3328 0.3454        
   3                                                                      
   3  BULK SOLVENT MODELLING.                                             
   3   METHOD USED        : FLAT BULK SOLVENT MODEL                       
   3   SOLVENT RADIUS     : 1.11                                          
   3   SHRINKAGE RADIUS   : 0.90                                          
   3   K_SOL              : NULL                                          
   3   B_SOL              : NULL                                          
   3                                                                      
   3  ERROR ESTIMATES.                                                    
   3   COORDINATE ERROR (MAXIMUM-LIKELIHOOD BASED)     : 0.190            
   3   PHASE ERROR (DEGREES, MAXIMUM-LIKELIHOOD BASED) : 22.750           
   3                                                                      
   3  B VALUES.                                                           
   3   FROM WILSON PLOT           (A**2) : 22.45                          
   3   MEAN B VALUE      (OVERALL, A**2) : 28.89                          
   3   OVERALL ANISOTROPIC B VALUE.                                       
   3    B11 (A**2) : NULL                                                 
   3    B22 (A**2) : NULL                                                 
   3    B33 (A**2) : NULL                                                 
   3    B12 (A**2) : NULL                                                 
   3    B13 (A**2) : NULL                                                 
   3    B23 (A**2) : NULL                                                 
   3                                                                      
   3  TWINNING INFORMATION.                                               
   3   FRACTION: NULL                                                     
   3   OPERATOR: NULL                                                     
   3                                                                      
   3  DEVIATIONS FROM IDEAL VALUES.                                       
   3                 RMSD          COUNT                                  
   3   BOND      :   NULL           NULL                                  
   3   ANGLE     :   NULL           NULL                                  
   3   CHIRALITY :   NULL           NULL                                  
   3   PLANARITY :   NULL           NULL                                  
   3   DIHEDRAL  :   NULL           NULL                                  
   3                                                                      
   3  TLS DETAILS                                                         
   3   NUMBER OF TLS GROUPS  : NULL                                       
   3                                                                      
   3  NCS DETAILS                                                         
   3   NUMBER OF NCS GROUPS : NULL                                        
   3                                                                      
   3  OTHER REFINEMENT REMARKS: NULL                                      
   4                                                                      
   4 8CUQ COMPLIES WITH FORMAT V. 3.30, 13-JUL-11                         
 100                                                                      
 100 THIS ENTRY HAS BEEN PROCESSED BY RCSB ON 19-MAY-22.                  
 100 THE DEPOSITION ID IS D_1000265485.                                   
 200                                                                      
 200 EXPERIMENTAL DETAILS                                                 
 200  EXPERIMENT TYPE                : X-RAY DIFFRACTION                  
 200  DATE OF DATA COLLECTION        : 13-NOV-20                          
 200  TEMPERATURE           (KELVIN) : 100                                
 200  PH                             : NULL                               
 200  NUMBER OF CRYSTALS USED        : 1                                  
 200                                                                      
 200  SYNCHROTRON              (Y/N) : Y                                  
 200  RADIATION SOURCE               : APS                                
 200  BEAMLINE                       : 21-ID-F                            
 200  X-RAY GENERATOR MODEL          : NULL                               
 200  MONOCHROMATIC OR LAUE    (M/L) : M                                  
 200  WAVELENGTH OR RANGE        (A) : .97872                             
 200  MONOCHROMATOR                  : NULL                               
 200  OPTICS                         : NULL                               
 200                                                                      
 200  DETECTOR TYPE                  : CCD                                
 200  DETECTOR MANUFACTURER          : RAYONIX MX-300                     
 200  INTENSITY-INTEGRATION SOFTWARE : XDS                                
 200  DATA SCALING SOFTWARE          : AIMLESS 0.7.4                      
 200                                                                      
 200  NUMBER OF UNIQUE REFLECTIONS   : 109336                             
 200  RESOLUTION RANGE HIGH      (A) : 1.550                              
 200  RESOLUTION RANGE LOW       (A) : 52.910                             
 200  REJECTION CRITERIA  (SIGMA(I)) : NULL                               
 200                                                                      
 200 OVERALL.                                                             
 200  COMPLETENESS FOR RANGE     (%) : 100.0                              
 200  DATA REDUNDANCY                : 6.700                              
 200  R MERGE                    (I) : 0.08400                            
 200  R SYM                      (I) : NULL                               
 200  <I/SIGMA(I)> FOR THE DATA SET  : 11.6000                            
 200                                                                      
 200 IN THE HIGHEST RESOLUTION SHELL.                                     
 200  HIGHEST RESOLUTION SHELL, RANGE HIGH (A) : 1.55                     
 200  HIGHEST RESOLUTION SHELL, RANGE LOW  (A) : 1.59                     
 200  COMPLETENESS FOR SHELL     (%) : 100.0                              
 200  DATA REDUNDANCY IN SHELL       : 6.70                               
 200  R MERGE FOR SHELL          (I) : 1.91700                            
 200  R SYM FOR SHELL            (I) : NULL                               
 200  <I/SIGMA(I)> FOR SHELL         : NULL                               
 200                                                                      
 200 DIFFRACTION PROTOCOL: SINGLE WAVELENGTH                              
 200 METHOD USED TO DETERMINE THE STRUCTURE: MOLECULAR REPLACEMENT        
 200 SOFTWARE USED: PHASER                                                
 200 STARTING MODEL: APO ADC-33                                           
 200                                                                      
 200 REMARK: NULL                                                         
 280                                                                      
 280 CRYSTAL                                                              
 280 SOLVENT CONTENT, VS   (%): 46.48                                     
 280 MATTHEWS COEFFICIENT, VM (ANGSTROMS**3/DA): 2.30                     
 280                                                                      
 280 CRYSTALLIZATION CONDITIONS: 25% W/V PEG 1500 0.1 M                   
 280  SUCCINATE/PHOSPHATE/GLYCINE BUFFER PH 5.0, VAPOR DIFFUSION,         
 280  HANGING DROP, TEMPERATURE 298K                                      
 290                                                                      
 290 CRYSTALLOGRAPHIC SYMMETRY                                            
 290 SYMMETRY OPERATORS FOR SPACE GROUP: P 21 21 21                       
 290                                                                      
 290      SYMOP   SYMMETRY                                                
 290     NNNMMM   OPERATOR                                                
 290       1555   X,Y,Z                                                   
 290       2555   -X+1/2,-Y,Z+1/2                                         
 290       3555   -X,Y+1/2,-Z+1/2                                         
 290       4555   X+1/2,-Y+1/2,-Z                                         
 290                                                                      
 290     WHERE NNN -> OPERATOR NUMBER                                     
 290           MMM -> TRANSLATION VECTOR                                  
 290                                                                      
 290 CRYSTALLOGRAPHIC SYMMETRY TRANSFORMATIONS                            
 290 THE FOLLOWING TRANSFORMATIONS OPERATE ON THE ATOM/HETATM             
 290 RECORDS IN THIS ENTRY TO PRODUCE CRYSTALLOGRAPHICALLY                
 290 RELATED MOLECULES.                                                   
 290   SMTRY1   1  1.000000  0.000000  0.000000        0.00000            
 290   SMTRY2   1  0.000000  1.000000  0.000000        0.00000            
 290   SMTRY3   1  0.000000  0.000000  1.000000        0.00000            
 290   SMTRY1   2 -1.000000  0.000000  0.000000       21.66000            
 290   SMTRY2   2  0.000000 -1.000000  0.000000        0.00000            
 290   SMTRY3   2  0.000000  0.000000  1.000000      102.23000            
 290   SMTRY1   3 -1.000000  0.000000  0.000000        0.00000            
 290   SMTRY2   3  0.000000  1.000000  0.000000       41.97000            
 290   SMTRY3   3  0.000000  0.000000 -1.000000      102.23000            
 290   SMTRY1   4  1.000000  0.000000  0.000000       21.66000            
 290   SMTRY2   4  0.000000 -1.000000  0.000000       41.97000            
 290   SMTRY3   4  0.000000  0.000000 -1.000000        0.00000            
 290                                                                      
 290 REMARK: NULL                                                         
 300                                                                      
 300 BIOMOLECULE: 1, 2                                                    
 300 SEE REMARK 350 FOR THE AUTHOR PROVIDED AND/OR PROGRAM                
 300 GENERATED ASSEMBLY INFORMATION FOR THE STRUCTURE IN                  
 300 THIS ENTRY. THE REMARK MAY ALSO PROVIDE INFORMATION ON               
 300 BURIED SURFACE AREA.                                                 
 350                                                                      
 350 COORDINATES FOR A COMPLETE MULTIMER REPRESENTING THE KNOWN           
 350 BIOLOGICALLY SIGNIFICANT OLIGOMERIZATION STATE OF THE                
 350 MOLECULE CAN BE GENERATED BY APPLYING BIOMT TRANSFORMATIONS          
 350 GIVEN BELOW.  BOTH NON-CRYSTALLOGRAPHIC AND                          
 350 CRYSTALLOGRAPHIC OPERATIONS ARE GIVEN.                               
 350                                                                      
 350 BIOMOLECULE: 1                                                       
 350 AUTHOR DETERMINED BIOLOGICAL UNIT: MONOMERIC                         
 350 SOFTWARE DETERMINED QUATERNARY STRUCTURE: MONOMERIC                  
 350 SOFTWARE USED: PISA                                                  
 350 APPLY THE FOLLOWING TO CHAINS: B                                     
 350   BIOMT1   1  1.000000  0.000000  0.000000        0.00000            
 350   BIOMT2   1  0.000000  1.000000  0.000000        0.00000            
 350   BIOMT3   1  0.000000  0.000000  1.000000        0.00000            
 350                                                                      
 350 BIOMOLECULE: 2                                                       
 350 AUTHOR DETERMINED BIOLOGICAL UNIT: MONOMERIC                         
 350 SOFTWARE DETERMINED QUATERNARY STRUCTURE: MONOMERIC                  
 350 SOFTWARE USED: PISA                                                  
 350 APPLY THE FOLLOWING TO CHAINS: A                                     
 350   BIOMT1   1  1.000000  0.000000  0.000000        0.00000            
 350   BIOMT2   1  0.000000  1.000000  0.000000        0.00000            
 350   BIOMT3   1  0.000000  0.000000  1.000000        0.00000            
 465                                                                      
 465 MISSING RESIDUES                                                     
 465 THE FOLLOWING RESIDUES WERE NOT LOCATED IN THE                       
 465 EXPERIMENT. (M=MODEL NUMBER; RES=RESIDUE NAME; C=CHAIN               
 465 IDENTIFIER; SSSEQ=SEQUENCE NUMBER; I=INSERTION CODE.)                
 465                                                                      
 465   M RES C SSSEQI                                                     
 465     MET B    -1                                                      
 465     GLY B     0                                                      
 465     MET A    -1                                                      
 465     GLY A     0                                                      
 465     ASN A     1                                                      
 465     LYS A   304                                                      
 465     LYS A   360                                                      
 470                                                                      
 470 MISSING ATOM                                                         
 470 THE FOLLOWING RESIDUES HAVE MISSING ATOMS (M=MODEL NUMBER;           
 470 RES=RESIDUE NAME; C=CHAIN IDENTIFIER; SSEQ=SEQUENCE NUMBER;          
 470 I=INSERTION CODE):                                                   
 470   M RES CSSEQI  ATOMS                                                
 470     ASN B   1    CG   OD1  ND2                                       
 470     GLU B   7    CG   CD   OE1  OE2                                  
 470     LYS B  10    CG   CD   CE   NZ                                   
 470     GLU B  21    CG   CD   OE1  OE2                                  
 470     GLU B 124    CG   CD   OE1  OE2                                  
 470     ASP B 128    CG   OD1  OD2                                       
 470     LYS B 185    CG   CD   CE   NZ                                   
 470     LYS B 193    CG   CD   CE   NZ                                   
 470     ASN B 213    CG   OD1  ND2                                       
 470     ARG B 214    CG   CD   NE   CZ   NH1  NH2                        
 470     ASP B 248    CG   OD1  OD2                                       
 470     ARG B 251    CD   NE   CZ   NH1  NH2                             
 470     GLU B 290    CG   CD   OE1  OE2                                  
 470     LYS B 360    CG   CD   CE   NZ                                   
 470     LYS A   4    CG   CD   CE   NZ                                   
 470     ASP A   5    CG   OD1  OD2                                       
 470     GLN A   6    CG   CD   OE1  NE2                                  
 470     LYS A   9    CG   CD   CE   NZ                                   
 470     LYS A  10    CG   CD   CE   NZ                                   
 470     GLU A  21    CG   CD   OE1  OE2                                  
 470     ASN A  36    CG   OD1  ND2                                       
 470     LYS A  37    CG   CD   CE   NZ                                   
 470     LYS A  94    CG   CD   CE   NZ                                   
 470     ASP A 123    CG   OD1  OD2                                       
 470     GLU A 124    CG   CD   OE1  OE2                                  
 470     LYS A 126    CG   CD   CE   NZ                                   
 470     ASP A 128    CG   OD1  OD2                                       
 470     LYS A 176    CG   CD   CE   NZ                                   
 470     LYS A 185    CG   CD   CE   NZ                                   
 470     LYS A 193    CG   CD   CE   NZ                                   
 470     GLN A 205    CG   CD   OE1  NE2                                  
 470     GLU A 206    CG   CD   OE1  OE2                                  
 470     ARG A 214    CG   CD   NE   CZ   NH1  NH2                        
 470     GLU A 290    CG   CD   OE1  OE2                                  
 470     LYS A 295    CE   NZ                                             
 470     SER A 303    OG                                                  
 470     GLU A 305    CG   CD   OE1  OE2                                  
 470     LYS A 329    CG   CD   CE   NZ                                   
 470     GLU A 345    CG   CD   OE1  OE2                                  
 470     LYS A 349    CG   CD   CE   NZ                                   
 470     LYS A 359    CG   CD   CE   NZ                                   
 500                                                                      
 500 GEOMETRY AND STEREOCHEMISTRY                                         
 500 SUBTOPIC: CLOSE CONTACTS IN SAME ASYMMETRIC UNIT                     
 500                                                                      
 500 THE FOLLOWING ATOMS ARE IN CLOSE CONTACT.                            
 500                                                                      
 500  ATM1  RES C  SSEQI   ATM2  RES C  SSEQI           DISTANCE          
 500   NE2  GLN B   120     O07  OZO B   401              1.31            
 500   OE2  GLU A   146     O    HOH A   501              2.17            
 500                                                                      
 500 REMARK: NULL                                                         
 500                                                                      
 500 GEOMETRY AND STEREOCHEMISTRY                                         
 500 SUBTOPIC: TORSION ANGLES                                             
 500                                                                      
 500 TORSION ANGLES OUTSIDE THE EXPECTED RAMACHANDRAN REGIONS:            
 500 (M=MODEL NUMBER; RES=RESIDUE NAME; C=CHAIN IDENTIFIER;               
 500 SSEQ=SEQUENCE NUMBER; I=INSERTION CODE).                             
 500                                                                      
 500 STANDARD TABLE:                                                      
 500 FORMAT:(10X,I3,1X,A3,1X,A1,I4,A1,4X,F7.2,3X,F7.2)                    
 500                                                                      
 500 EXPECTED VALUES: GJ KLEYWEGT AND TA JONES (1996). PHI/PSI-           
 500 CHOLOGY: RAMACHANDRAN REVISITED. STRUCTURE 4, 1395 - 1400            
 500                                                                      
 500  M RES CSSEQI        PSI       PHI                                   
 500    TYR B 112       31.18     71.39                                   
 500    ASN B 116       49.50   -163.23                                   
 500    LYS B 141      -81.40   -114.68                                   
 500    ARG B 214     -169.88     62.64                                   
 500    TYR B 223       23.31   -156.60                                   
 500    ASN B 264     -119.90     46.68                                   
 500    SER B 303      -60.84   -102.30                                   
 500    ASN A 116       51.39   -159.82                                   
 500    LYS A 126      -34.53   -153.35                                   
 500    LYS A 141      -84.14   -124.72                                   
 500    HIS A 186       49.01   -144.44                                   
 500    PRO A 216     -177.38    -65.59                                   
 500    TYR A 223       18.98   -155.90                                   
 500    ASN A 264     -124.77     55.00                                   
 500                                                                      
 500 REMARK: NULL                                                         

>  <DBREF>
 8CUQ B    0   360  UNP    A7Y407   A7Y407_ACIBA    24    384             
 8CUQ A    0   360  UNP    A7Y407   A7Y407_ACIBA    24    384             

>  <SEQADV>
 8CUQ MET B   -1  UNP  A7Y407              INITIATING METHIONINE          
 8CUQ MET A   -1  UNP  A7Y407              INITIATING METHIONINE          

>  <SEQRES>
   1 B  362  MET GLY ASN THR PRO LYS ASP GLN GLU ILE LYS LYS LEU          
   2 B  362  VAL ASP GLN ASN PHE LYS PRO LEU LEU GLU LYS TYR ASP          
   3 B  362  VAL PRO GLY MET ALA VAL GLY VAL ILE GLN ASN ASN LYS          
   4 B  362  LYS TYR GLU MET TYR TYR GLY LEU GLN SER VAL GLN ASP          
   5 B  362  LYS LYS ALA VAL ASN SER SER THR ILE PHE GLU LEU GLY          
   6 B  362  SER VAL SER LYS LEU PHE THR ALA THR ALA GLY GLY TYR          
   7 B  362  ALA LYS ASN LYS GLY LYS ILE SER PHE ASP ASP THR PRO          
   8 B  362  GLY LYS TYR TRP LYS GLU LEU LYS ASN THR PRO ILE ASP          
   9 B  362  GLN VAL ASN LEU LEU GLN LEU ALA THR TYR THR SER GLY          
  10 B  362  ASN LEU ALA LEU GLN PHE PRO ASP GLU VAL LYS THR ASP          
  11 B  362  GLN GLN VAL LEU THR PHE PHE LYS ASP TRP LYS PRO LYS          
  12 B  362  ASN SER ILE GLY GLU TYR ARG GLN TYR SER ASN PRO SER          
  13 B  362  ILE GLY LEU PHE GLY LYS VAL VAL ALA LEU SER MET ASN          
  14 B  362  LYS PRO PHE ASP GLN VAL LEU GLU LYS THR ILE PHE PRO          
  15 B  362  ALA LEU GLY LEU LYS HIS SER TYR VAL ASN VAL PRO LYS          
  16 B  362  THR GLN MET GLN ASN TYR ALA PHE GLY TYR ASN GLN GLU          
  17 B  362  ASN GLN PRO ILE ARG VAL ASN ARG GLY PRO LEU ASP ALA          
  18 B  362  ALA PRO ALA TYR GLY VAL LYS SER THR LEU PRO ASP MET          
  19 B  362  LEU SER PHE ILE HIS ALA ASN LEU ASN PRO GLN LYS TYR          
  20 B  362  PRO ALA ASP ILE GLN ARG ALA ILE ASN GLU THR HIS GLN          
  21 B  362  GLY ARG TYR GLN VAL ASN THR MET TYR GLN ALA LEU GLY          
  22 B  362  TRP GLU GLU PHE SER TYR PRO ALA THR LEU GLN THR LEU          
  23 B  362  LEU ASP SER ASN SER GLU GLN ILE VAL MET LYS PRO ASN          
  24 B  362  LYS VAL THR ALA ILE SER LYS GLU PRO SER VAL LYS MET          
  25 B  362  TYR HIS LYS THR GLY SER THR ASN GLY PHE GLY THR TYR          
  26 B  362  VAL VAL PHE ILE PRO LYS GLU ASN ILE GLY LEU VAL MET          
  27 B  362  LEU THR ASN LYS ARG ILE PRO ASN GLU GLU ARG ILE LYS          
  28 B  362  ALA ALA TYR ALA VAL LEU ASN ALA ILE LYS LYS                  
   1 A  362  MET GLY ASN THR PRO LYS ASP GLN GLU ILE LYS LYS LEU          
   2 A  362  VAL ASP GLN ASN PHE LYS PRO LEU LEU GLU LYS TYR ASP          
   3 A  362  VAL PRO GLY MET ALA VAL GLY VAL ILE GLN ASN ASN LYS          
   4 A  362  LYS TYR GLU MET TYR TYR GLY LEU GLN SER VAL GLN ASP          
   5 A  362  LYS LYS ALA VAL ASN SER SER THR ILE PHE GLU LEU GLY          
   6 A  362  SER VAL SER LYS LEU PHE THR ALA THR ALA GLY GLY TYR          
   7 A  362  ALA LYS ASN LYS GLY LYS ILE SER PHE ASP ASP THR PRO          
   8 A  362  GLY LYS TYR TRP LYS GLU LEU LYS ASN THR PRO ILE ASP          
   9 A  362  GLN VAL ASN LEU LEU GLN LEU ALA THR TYR THR SER GLY          
  10 A  362  ASN LEU ALA LEU GLN PHE PRO ASP GLU VAL LYS THR ASP          
  11 A  362  GLN GLN VAL LEU THR PHE PHE LYS ASP TRP LYS PRO LYS          
  12 A  362  ASN SER ILE GLY GLU TYR ARG GLN TYR SER ASN PRO SER          
  13 A  362  ILE GLY LEU PHE GLY LYS VAL VAL ALA LEU SER MET ASN          
  14 A  362  LYS PRO PHE ASP GLN VAL LEU GLU LYS THR ILE PHE PRO          
  15 A  362  ALA LEU GLY LEU LYS HIS SER TYR VAL ASN VAL PRO LYS          
  16 A  362  THR GLN MET GLN ASN TYR ALA PHE GLY TYR ASN GLN GLU          
  17 A  362  ASN GLN PRO ILE ARG VAL ASN ARG GLY PRO LEU ASP ALA          
  18 A  362  ALA PRO ALA TYR GLY VAL LYS SER THR LEU PRO ASP MET          
  19 A  362  LEU SER PHE ILE HIS ALA ASN LEU ASN PRO GLN LYS TYR          
  20 A  362  PRO ALA ASP ILE GLN ARG ALA ILE ASN GLU THR HIS GLN          
  21 A  362  GLY ARG TYR GLN VAL ASN THR MET TYR GLN ALA LEU GLY          
  22 A  362  TRP GLU GLU PHE SER TYR PRO ALA THR LEU GLN THR LEU          
  23 A  362  LEU ASP SER ASN SER GLU GLN ILE VAL MET LYS PRO ASN          
  24 A  362  LYS VAL THR ALA ILE SER LYS GLU PRO SER VAL LYS MET          
  25 A  362  TYR HIS LYS THR GLY SER THR ASN GLY PHE GLY THR TYR          
  26 A  362  VAL VAL PHE ILE PRO LYS GLU ASN ILE GLY LEU VAL MET          
  27 A  362  LEU THR ASN LYS ARG ILE PRO ASN GLU GLU ARG ILE LYS          
  28 A  362  ALA ALA TYR ALA VAL LEU ASN ALA ILE LYS LYS                  

>  <HET>
 OZO  B 401      24                                                       
 OZO  A 401      24                                                       

>  <HETNAM>
     OZO 3-[(4R)-4-ETHYL-5,7,7-TRIHYDROXY-2,2,7-TRIOXO-6-OXA-             
   2 OZO  2LAMBDA~6~-THIA-3-AZA-7LAMBDA~5~-PHOSPHA-5-BORAHEPTAN-          
   3 OZO  1-YL]BENZOIC ACID                                               

>  <FORMUL>
   3  OZO    2(C11 H17 B N O9 P S)                                        
   5  HOH   *581(H2 O)                                                    

>  <HELIX>
   1 AA1 PRO B    3  PHE B   16  1                                  14    
   2 AA2 PHE B   16  ASP B   24  1                                   9    
   3 AA3 VAL B   65  LYS B   80  1                                  16    
   4 AA4 THR B   88  TYR B   92  5                                   5    
   5 AA5 TRP B   93  LYS B   97  5                                   5    
   6 AA6 THR B   99  VAL B  104  5                                   6    
   7 AA7 ASN B  105  THR B  111  1                                   7    
   8 AA8 THR B  127  ASP B  137  1                                  11    
   9 AA9 SER B  151  MET B  166  1                                  16    
  10 AB1 PRO B  169  THR B  177  1                                   9    
  11 AB2 THR B  177  LEU B  182  1                                   6    
  12 AB3 PRO B  192  TYR B  199  5                                   8    
  13 AB4 PRO B  216  ASP B  218  5                                   3    
  14 AB5 ALA B  219  GLY B  224  1                                   6    
  15 AB6 THR B  228  ASN B  241  1                                  14    
  16 AB7 PRO B  242  TYR B  245  5                                   4    
  17 AB8 PRO B  246  HIS B  257  1                                  12    
  18 AB9 THR B  280  SER B  287  1                                   8    
  19 AC1 SER B  289  LYS B  295  1                                   7    
  20 AC2 PRO B  328  GLU B  330  5                                   3    
  21 AC3 PRO B  343  ILE B  358  1                                  16    
  22 AC4 PRO A    3  PHE A   16  1                                  14    
  23 AC5 PHE A   16  ASP A   24  1                                   9    
  24 AC6 VAL A   65  LYS A   80  1                                  16    
  25 AC7 THR A   88  TYR A   92  5                                   5    
  26 AC8 TRP A   93  LYS A   97  5                                   5    
  27 AC9 THR A   99  VAL A  104  5                                   6    
  28 AD1 ASN A  105  THR A  111  1                                   7    
  29 AD2 THR A  127  TRP A  138  1                                  12    
  30 AD3 SER A  151  MET A  166  1                                  16    
  31 AD4 PRO A  169  THR A  177  1                                   9    
  32 AD5 THR A  177  LEU A  182  1                                   6    
  33 AD6 PRO A  192  TYR A  199  5                                   8    
  34 AD7 ASP A  218  GLY A  224  1                                   7    
  35 AD8 THR A  228  ASN A  241  1                                  14    
  36 AD9 PRO A  242  TYR A  245  5                                   4    
  37 AE1 PRO A  246  THR A  256  1                                  11    
  38 AE2 THR A  280  SER A  287  1                                   8    
  39 AE3 SER A  289  LYS A  295  1                                   7    
  40 AE4 PRO A  328  GLU A  330  5                                   3    
  41 AE5 PRO A  343  ILE A  358  1                                  16    

>  <SHEET>
   1 AA1 9 LYS B  52  ALA B  53  0                                        
   2 AA1 9 LYS B  37  SER B  47 -1  N  GLN B  46   O  LYS B  52           
   3 AA1 9 GLY B  27  GLN B  34 -1  N  MET B  28   O  TYR B  43           
   4 AA1 9 ILE B 332  THR B 338 -1  O  LEU B 337   N  ALA B  29           
   5 AA1 9 PHE B 320  ILE B 327 -1  N  ILE B 327   O  ILE B 332           
   6 AA1 9 LYS B 309  THR B 317 -1  N  GLY B 315   O  THR B 322           
   7 AA1 9 GLU B 273  SER B 276 -1  N  PHE B 275   O  MET B 310           
   8 AA1 9 MET B 266  GLN B 268 -1  N  TYR B 267   O  GLU B 274           
   9 AA1 9 TYR B 261  VAL B 263 -1  N  VAL B 263   O  MET B 266           
   1 AA2 2 PHE B  60  GLU B  61  0                                        
   2 AA2 2 LYS B 226  SER B 227 -1  O  SER B 227   N  PHE B  60           
   1 AA3 2 TYR B 147  ARG B 148  0                                        
   2 AA3 2 ASN B 297  LYS B 298 -1  O  ASN B 297   N  ARG B 148           
   1 AA4 2 GLY B 202  TYR B 203  0                                        
   2 AA4 2 PRO B 209  ILE B 210 -1  O  ILE B 210   N  GLY B 202           
   1 AA5 9 LYS A  52  ALA A  53  0                                        
   2 AA5 9 LYS A  37  SER A  47 -1  N  GLN A  46   O  LYS A  52           
   3 AA5 9 GLY A  27  GLN A  34 -1  N  MET A  28   O  TYR A  43           
   4 AA5 9 ILE A 332  THR A 338 -1  O  LEU A 337   N  ALA A  29           
   5 AA5 9 GLY A 321  ILE A 327 -1  N  ILE A 327   O  ILE A 332           
   6 AA5 9 LYS A 309  SER A 316 -1  N  GLY A 315   O  THR A 322           
   7 AA5 9 GLU A 273  SER A 276 -1  N  PHE A 275   O  MET A 310           
   8 AA5 9 MET A 266  GLN A 268 -1  N  TYR A 267   O  GLU A 274           
   9 AA5 9 TYR A 261  VAL A 263 -1  N  VAL A 263   O  MET A 266           
   1 AA6 2 PHE A  60  GLU A  61  0                                        
   2 AA6 2 LYS A 226  SER A 227 -1  O  SER A 227   N  PHE A  60           
   1 AA7 2 TYR A 147  ARG A 148  0                                        
   2 AA7 2 ASN A 297  LYS A 298 -1  O  ASN A 297   N  ARG A 148           
   1 AA8 2 GLY A 202  TYR A 203  0                                        
   2 AA8 2 PRO A 209  ILE A 210 -1  O  ILE A 210   N  GLY A 202           

>  <LINK>
       OG  SER B  64                 B18 OZO B 401     1555   1555  1.45  
       OG  SER A  64                 B18 OZO A 401     1555   1555  1.45  

>  <CISPEP>
   1 TYR B  277    PRO B  278          0         1.89                     
   2 TYR A  277    PRO A  278          0         6.96                     

>  <ORIGX1>
      1.000000  0.000000  0.000000        0.00000                         

>  <ORIGX2>
      0.000000  1.000000  0.000000        0.00000                         

>  <ORIGX3>
      0.000000  0.000000  1.000000        0.00000                         

>  <SCALE1>
      0.023084  0.000000  0.000000        0.00000                         

>  <SCALE2>
      0.000000  0.011913  0.000000        0.00000                         

>  <SCALE3>
      0.000000  0.000000  0.004891        0.00000                         

>  <MASTER>
      331    0    2   41   30    0    0    6 6174    2   50   56          

$$$$
