start_structures/Ligand_Substrate/Ligand_Complex_Stripped/P1K_6TZI.pdb
 OpenBabel08222315203D

 52 50  0  0  1  0  0  0  0  0999 V2000
   59.1840   -9.4810   38.2440 N   0  0  0  0  0  0  0  0  0  0  0  0
   58.8720  -10.9060   38.2250 C   0  0  2  0  0  0  0  0  0  0  0  0
   57.3670  -11.1310   38.2100 C   0  0  0  0  0  0  0  0  0  0  0  0
   56.9170  -12.2510   37.9800 O   0  0  0  0  0  0  0  0  0  0  0  0
   59.5070  -11.6210   39.3520 C   0  0  0  0  0  0  0  0  0  0  0  0
   60.8570  -11.8760   38.9850 O   0  0  0  0  0  0  0  0  0  0  0  0
   66.7090   -6.6250   36.5690 F   0  0  0  0  0  0  0  0  0  0  0  0
   65.7740   -6.2170   40.5080 F   0  0  0  0  0  0  0  0  0  0  0  0
   66.8260   -7.2530   37.7430 C   0  0  1  0  0  0  0  0  0  0  0  0
   66.9600   -6.6140   40.0880 C   0  0  0  0  0  0  0  0  0  0  0  0
   67.9800   -7.9230   37.6920 F   0  0  0  0  0  0  0  0  0  0  0  0
   66.9200   -7.9220   39.8730 F   0  0  0  0  0  0  0  0  0  0  0  0
   65.7920   -8.0880   37.7920 F   0  0  0  0  0  0  0  0  0  0  0  0
   67.7870   -6.3670   41.1030 F   0  0  0  0  0  0  0  0  0  0  0  0
   66.7960   -6.2350   38.9340 C   0  0  1  0  0  0  0  0  0  0  0  0
   67.4170   -5.8350   38.8230 C   0  0  0  0  0  0  0  0  0  0  0  0
   66.9020   -6.6790   40.5780 S   0  0  1  0  0  0  0  0  0  0  0  0
   66.8990   -6.2700   37.2690 S   0  0  0  0  0  0  0  0  0  0  0  0
   67.8090   -5.8010   41.2860 O   0  0  0  0  0  0  0  0  0  0  0  0
   66.6440   -5.0690   36.5090 O   0  0  0  0  0  0  0  0  0  0  0  0
   65.6610   -6.6000   41.2810 O   0  0  0  0  0  0  0  0  0  0  0  0
   67.9370   -7.0290   36.6160 O   0  0  0  0  0  0  0  0  0  0  0  0
   67.4840   -8.1670   40.7590 N   0  0  0  0  0  0  0  0  0  0  0  0
   65.5360   -7.1600   37.2580 N   0  0  0  0  0  0  0  0  0  0  0  0
   66.5580   -8.9620   41.5750 C   0  0  0  0  0  0  0  0  0  0  0  0
   65.7140   -8.5630   36.8220 C   0  0  2  0  0  0  0  0  0  0  0  0
   65.8740   -9.8690   40.5870 C   0  0  1  0  0  0  0  0  0  0  0  0
   65.2780   -9.4880   37.9510 C   0  0  1  0  0  0  0  0  0  0  0  0
   66.5030  -10.5790   39.6140 N   0  0  0  0  0  0  0  0  0  0  0  0
   65.8970   -9.6070   39.1590 N   0  0  2  0  0  0  0  0  0  0  0  0
   65.5350  -11.2960   38.8820 N   0  0  0  0  0  0  0  0  0  0  0  0
   65.1940  -10.5470   39.9380 N   0  0  2  0  0  4  0  0  0  0  0  0
   64.4930  -10.0840   40.5070 C   0  0  2  0  0  0  0  0  0  0  0  0
   64.1830  -10.3490   37.9490 C   0  0  0  0  0  0  0  0  0  0  0  0
   64.3240  -10.9340   39.4970 N   0  0  1  0  0  0  0  0  0  0  0  0
   64.1270  -10.9680   39.1410 N   0  0  0  0  0  0  0  0  0  0  0  0
   63.1460  -11.5600   38.9130 C   0  0  0  0  0  0  0  0  0  0  0  0
   63.2410  -11.9930   39.7460 C   0  0  0  0  0  0  0  0  0  0  0  0
   61.8520  -11.2910   39.8110 B   0  0  0  0  0  0  0  0  0  0  0  0
   61.7360  -11.5070   40.0880 B   0  0  0  0  0  0  0  0  0  0  0  0
   62.0380  -12.0000   41.0460 O   0  0  0  0  0  0  0  0  0  0  0  0
   61.2560  -12.1490   41.2950 O   0  0  0  0  0  0  0  0  0  0  0  0
   61.6150   -9.7940   39.9580 O   0  0  0  0  0  0  0  0  0  0  0  0
   61.7130  -10.0000   40.2920 O   0  0  0  0  0  0  0  0  0  0  0  0
   61.3390  -11.8400   42.4990 P   0  0  1  0  0  0  0  0  0  0  0  0
   61.2550  -11.7000   42.8730 P   0  0  0  0  0  0  0  0  0  0  0  0
   60.2470  -12.8890   42.6210 O   0  0  0  0  0  0  0  0  0  0  0  0
   61.2680  -10.1840   43.0290 O   0  0  0  0  0  0  0  0  0  0  0  0
   60.8330  -10.4260   42.7300 O   0  0  0  0  0  0  0  0  0  0  0  0
   62.4490  -12.3040   43.5890 O   0  0  0  0  0  0  0  0  0  0  0  0
   62.3430  -12.1910   43.5860 O   0  0  0  0  0  0  0  0  0  0  0  0
   60.0250  -12.2310   43.5770 O   0  0  0  0  0  0  0  0  0  0  0  0
  2  1  1  1  0  0  0
  2  5  1  0  0  0  0
  3  2  1  0  0  0  0
  4  3  2  0  0  0  0
  6  5  1  0  0  0  0
  6 39  1  0  0  0  0
  7 18  1  0  0  0  0
  8 21  1  0  0  0  0
  9 11  1  6  0  0  0
 12 23  1  0  0  0  0
 14 19  1  0  0  0  0
 15 16  1  1  0  0  0
 15 10  1  0  0  0  0
 17 10  1  6  0  0  0
 17 23  1  0  0  0  0
 17 21  1  0  0  0  0
 18  9  1  0  0  0  0
 18 15  1  0  0  0  0
 20 18  1  0  0  0  0
 22 18  1  0  0  0  0
 23 25  1  0  0  0  0
 24  9  1  0  0  0  0
 26 24  1  0  0  0  0
 26 13  1  1  0  0  0
 27 29  1  1  0  0  0
 28 26  1  1  0  0  0
 28 30  1  0  0  0  0
 30 29  1  6  0  0  0
 30 27  1  0  0  0  0
 32 31  1  6  0  0  0
 32 33  1  0  0  0  0
 32 27  1  0  0  0  0
 33 27  1  0  0  0  0
 34 28  1  0  0  0  0
 34 36  1  0  0  0  0
 35 32  1  0  0  0  0
 35 33  1  0  0  0  0
 36 35  1  0  0  0  0
 37 36  1  0  0  0  0
 37 38  1  0  0  0  0
 39 44  1  0  0  0  0
 40 41  1  0  0  0  0
 41 42  1  0  0  0  0
 42 45  1  0  0  0  0
 43 44  1  0  0  0  0
 45 47  1  0  0  0  0
 45 46  1  0  0  0  0
 47 52  1  0  0  0  0
 49 46  1  0  0  0  0
 49 48  1  0  0  0  0
M  END
>  <HEADER>
    HYDROLASE                               12-AUG-19   6TZI              

>  <TITLE>
    ADC-7 IN COMPLEX WITH BORONIC ACID TRANSITION STATE INHIBITOR PFC_001 

>  <COMPND>
    MOL_ID: 1;                                                            
   2 MOLECULE: BETA-LACTAMASE;                                            
   3 CHAIN: A, B, C, D;                                                   
   4 EC: 3.5.2.6;                                                         
   5 ENGINEERED: YES                                                      

>  <SOURCE>
    MOL_ID: 1;                                                            
   2 ORGANISM_SCIENTIFIC: ACINETOBACTER BAUMANNII;                        
   3 ORGANISM_TAXID: 470;                                                 
   4 EXPRESSION_SYSTEM: ESCHERICHIA COLI BL21(DE3);                       
   5 EXPRESSION_SYSTEM_TAXID: 469008;                                     
   6 EXPRESSION_SYSTEM_VECTOR_TYPE: PLASMID;                              
   7 EXPRESSION_SYSTEM_PLASMID: PET28A                                    

>  <KEYWDS>
    INHIBITOR, BETA-LACTAMASE, BATSI, ADC-7, HYDROLASE                    

>  <EXPDTA>
    X-RAY DIFFRACTION                                                     

>  <AUTHOR>
    E.R.FISH,R.A.POWERS,B.J.WALLAR                                        

>  <REVDAT>
   3   22-JUL-20 6TZI    1       JRNL                                     
   2   08-JUL-20 6TZI    1       JRNL                                     
   1   24-JUN-20 6TZI    0                                                

>  <JRNL>
      AUTH   E.CASELLI,F.FINI,M.L.INTROVIGNE,M.STUCCHI,M.A.TARACILA,      
      AUTH 2 E.R.FISH,K.A.SMOLEN,P.N.RATHER,R.A.POWERS,B.J.WALLAR,        
      AUTH 3 R.A.BONOMO,F.PRATI                                           
      TITL   1,2,3-TRIAZOLYLMETHANEBORONATE: A STRUCTURE ACTIVITY         
      TITL 2 RELATIONSHIP STUDY OF A CLASS OF BETA-LACTAMASE INHIBITORS   
      TITL 3 AGAINSTACINETOBACTER BAUMANNIICEPHALOSPORINASE.              
      REF    ACS INFECT DIS.               V.   6  1965 2020              
      REFN                   ESSN 2373-8227                               
      PMID   32502340                                                     
      DOI    10.1021/ACSINFECDIS.0C00254                                  

>  <REMARK>
   2                                                                      
   2 RESOLUTION.    1.74 ANGSTROMS.                                       
   3                                                                      
   3 REFINEMENT.                                                          
   3   PROGRAM     : REFMAC 5.8.0253                                      
   3   AUTHORS     : MURSHUDOV,SKUBAK,LEBEDEV,PANNU,STEINER,              
   3               : NICHOLLS,WINN,LONG,VAGIN                             
   3                                                                      
   3    REFINEMENT TARGET : NULL                                          
   3                                                                      
   3  DATA USED IN REFINEMENT.                                            
   3   RESOLUTION RANGE HIGH (ANGSTROMS) : 1.74                           
   3   RESOLUTION RANGE LOW  (ANGSTROMS) : 81.95                          
   3   DATA CUTOFF            (SIGMA(F)) : 0.000                          
   3   COMPLETENESS FOR RANGE        (%) : 82.6                           
   3   NUMBER OF REFLECTIONS             : 110727                         
   3                                                                      
   3  FIT TO DATA USED IN REFINEMENT.                                     
   3   CROSS-VALIDATION METHOD          : THROUGHOUT                      
   3   FREE R VALUE TEST SET SELECTION  : RANDOM                          
   3   R VALUE     (WORKING + TEST SET) : 0.219                           
   3   R VALUE            (WORKING SET) : 0.216                           
   3   FREE R VALUE                     : 0.273                           
   3   FREE R VALUE TEST SET SIZE   (%) : 5.000                           
   3   FREE R VALUE TEST SET COUNT      : 5806                            
   3                                                                      
   3  FIT IN THE HIGHEST RESOLUTION BIN.                                  
   3   TOTAL NUMBER OF BINS USED           : 20                           
   3   BIN RESOLUTION RANGE HIGH       (A) : 1.74                         
   3   BIN RESOLUTION RANGE LOW        (A) : 1.79                         
   3   REFLECTION IN BIN     (WORKING SET) : 1828                         
   3   BIN COMPLETENESS (WORKING+TEST) (%) : 18.64                        
   3   BIN R VALUE           (WORKING SET) : 0.2970                       
   3   BIN FREE R VALUE SET COUNT          : 102                          
   3   BIN FREE R VALUE                    : 0.3170                       
   3                                                                      
   3  NUMBER OF NON-HYDROGEN ATOMS USED IN REFINEMENT.                    
   3   PROTEIN ATOMS            : 11061                                   
   3   NUCLEIC ACID ATOMS       : 0                                       
   3   HETEROGEN ATOMS          : 92                                      
   3   SOLVENT ATOMS            : 871                                     
   3                                                                      
   3  B VALUES.                                                           
   3   FROM WILSON PLOT           (A**2) : NULL                           
   3   MEAN B VALUE      (OVERALL, A**2) : 40.11                          
   3   OVERALL ANISOTROPIC B VALUE.                                       
   3    B11 (A**2) : -0.03000                                             
   3    B22 (A**2) : -0.16000                                             
   3    B33 (A**2) : 0.12000                                              
   3    B12 (A**2) : 0.00000                                              
   3    B13 (A**2) : 0.02000                                              
   3    B23 (A**2) : 0.00000                                              
   3                                                                      
   3  ESTIMATED OVERALL COORDINATE ERROR.                                 
   3   ESU BASED ON R VALUE                            (A): 0.180         
   3   ESU BASED ON FREE R VALUE                       (A): 0.170         
   3   ESU BASED ON MAXIMUM LIKELIHOOD                 (A): 0.130         
   3   ESU FOR B VALUES BASED ON MAXIMUM LIKELIHOOD (A**2): 4.223         
   3                                                                      
   3 CORRELATION COEFFICIENTS.                                            
   3   CORRELATION COEFFICIENT FO-FC      : 0.949                         
   3   CORRELATION COEFFICIENT FO-FC FREE : 0.918                         
   3                                                                      
   3  RMS DEVIATIONS FROM IDEAL VALUES        COUNT    RMS    WEIGHT      
   3   BOND LENGTHS REFINED ATOMS        (A): 11449 ; 0.007 ; 0.012       
   3   BOND LENGTHS OTHERS               (A):  NULL ;  NULL ;  NULL       
   3   BOND ANGLES REFINED ATOMS   (DEGREES): 15613 ; 1.524 ; 1.660       
   3   BOND ANGLES OTHERS          (DEGREES):  NULL ;  NULL ;  NULL       
   3   TORSION ANGLES, PERIOD 1    (DEGREES):  1421 ; 7.583 ; 5.018       
   3   TORSION ANGLES, PERIOD 2    (DEGREES):   513 ;40.480 ;25.049       
   3   TORSION ANGLES, PERIOD 3    (DEGREES):  1861 ;15.188 ;15.000       
   3   TORSION ANGLES, PERIOD 4    (DEGREES):    22 ;16.705 ;15.000       
   3   CHIRAL-CENTER RESTRAINTS       (A**3):  1508 ; 0.113 ; 0.200       
   3   GENERAL PLANES REFINED ATOMS      (A):  8723 ; 0.008 ; 0.020       
   3   GENERAL PLANES OTHERS             (A):  NULL ;  NULL ;  NULL       
   3   NON-BONDED CONTACTS REFINED ATOMS (A):  NULL ;  NULL ;  NULL       
   3   NON-BONDED CONTACTS OTHERS        (A):  NULL ;  NULL ;  NULL       
   3   NON-BONDED TORSION REFINED ATOMS  (A):  NULL ;  NULL ;  NULL       
   3   NON-BONDED TORSION OTHERS         (A):  NULL ;  NULL ;  NULL       
   3   H-BOND (X...Y) REFINED ATOMS      (A):  NULL ;  NULL ;  NULL       
   3   H-BOND (X...Y) OTHERS             (A):  NULL ;  NULL ;  NULL       
   3   POTENTIAL METAL-ION REFINED ATOMS (A):  NULL ;  NULL ;  NULL       
   3   POTENTIAL METAL-ION OTHERS        (A):  NULL ;  NULL ;  NULL       
   3   SYMMETRY VDW REFINED ATOMS        (A):  NULL ;  NULL ;  NULL       
   3   SYMMETRY VDW OTHERS               (A):  NULL ;  NULL ;  NULL       
   3   SYMMETRY H-BOND REFINED ATOMS     (A):  NULL ;  NULL ;  NULL       
   3   SYMMETRY H-BOND OTHERS            (A):  NULL ;  NULL ;  NULL       
   3   SYMMETRY METAL-ION REFINED ATOMS  (A):  NULL ;  NULL ;  NULL       
   3   SYMMETRY METAL-ION OTHERS         (A):  NULL ;  NULL ;  NULL       
   3                                                                      
   3  ISOTROPIC THERMAL FACTOR RESTRAINTS.     COUNT   RMS    WEIGHT      
   3   MAIN-CHAIN BOND REFINED ATOMS  (A**2):  NULL ;  NULL ;  NULL       
   3   MAIN-CHAIN BOND OTHER ATOMS    (A**2):  NULL ;  NULL ;  NULL       
   3   MAIN-CHAIN ANGLE REFINED ATOMS (A**2):  NULL ;  NULL ;  NULL       
   3   MAIN-CHAIN ANGLE OTHER ATOMS   (A**2):  NULL ;  NULL ;  NULL       
   3   SIDE-CHAIN BOND REFINED ATOMS  (A**2):  NULL ;  NULL ;  NULL       
   3   SIDE-CHAIN BOND OTHER ATOMS    (A**2):  NULL ;  NULL ;  NULL       
   3   SIDE-CHAIN ANGLE REFINED ATOMS (A**2):  NULL ;  NULL ;  NULL       
   3   SIDE-CHAIN ANGLE OTHER ATOMS   (A**2):  NULL ;  NULL ;  NULL       
   3   LONG RANGE B REFINED ATOMS     (A**2):  NULL ;  NULL ;  NULL       
   3   LONG RANGE B OTHER ATOMS       (A**2):  NULL ;  NULL ;  NULL       
   3                                                                      
   3 ANISOTROPIC THERMAL FACTOR RESTRAINTS.    COUNT   RMS   WEIGHT       
   3   RIGID-BOND RESTRAINTS          (A**2):  NULL ;  NULL ;  NULL       
   3   SPHERICITY; FREE ATOMS         (A**2):  NULL ;  NULL ;  NULL       
   3   SPHERICITY; BONDED ATOMS       (A**2):  NULL ;  NULL ;  NULL       
   3                                                                      
   3  NCS RESTRAINTS STATISTICS                                           
   3   NUMBER OF DIFFERENT NCS GROUPS : NULL                              
   3                                                                      
   3  TLS DETAILS                                                         
   3   NUMBER OF TLS GROUPS  : NULL                                       
   3                                                                      
   3  BULK SOLVENT MODELLING.                                             
   3   METHOD USED : NULL                                                 
   3   PARAMETERS FOR MASK CALCULATION                                    
   3   VDW PROBE RADIUS   : 1.20                                          
   3   ION PROBE RADIUS   : 0.80                                          
   3   SHRINKAGE RADIUS   : 0.80                                          
   3                                                                      
   3  OTHER REFINEMENT REMARKS: HYDROGENS HAVE BEEN USED IF PRESENT IN    
   3  THE INPUT U VALUES : REFINED INDIVIDUALLY                           
   4                                                                      
   4 6TZI COMPLIES WITH FORMAT V. 3.30, 13-JUL-11                         
 100                                                                      
 100 THIS ENTRY HAS BEEN PROCESSED BY RCSB ON 16-AUG-19.                  
 100 THE DEPOSITION ID IS D_1000243215.                                   
 200                                                                      
 200 EXPERIMENTAL DETAILS                                                 
 200  EXPERIMENT TYPE                : X-RAY DIFFRACTION                  
 200  DATE OF DATA COLLECTION        : 12-JUN-18                          
 200  TEMPERATURE           (KELVIN) : 100                                
 200  PH                             : 5.0                                
 200  NUMBER OF CRYSTALS USED        : 1                                  
 200                                                                      
 200  SYNCHROTRON              (Y/N) : Y                                  
 200  RADIATION SOURCE               : APS                                
 200  BEAMLINE                       : 21-ID-D                            
 200  X-RAY GENERATOR MODEL          : NULL                               
 200  MONOCHROMATIC OR LAUE    (M/L) : M                                  
 200  WAVELENGTH OR RANGE        (A) : 1.07809                            
 200  MONOCHROMATOR                  : NULL                               
 200  OPTICS                         : NULL                               
 200                                                                      
 200  DETECTOR TYPE                  : PIXEL                              
 200  DETECTOR MANUFACTURER          : DECTRIS EIGER2 X 9M                
 200  INTENSITY-INTEGRATION SOFTWARE : XDS                                
 200  DATA SCALING SOFTWARE          : AIMLESS                            
 200                                                                      
 200  NUMBER OF UNIQUE REFLECTIONS   : 116473                             
 200  RESOLUTION RANGE HIGH      (A) : 1.744                              
 200  RESOLUTION RANGE LOW       (A) : 81.950                             
 200  REJECTION CRITERIA  (SIGMA(I)) : NULL                               
 200                                                                      
 200 OVERALL.                                                             
 200  COMPLETENESS FOR RANGE     (%) : 96.0                               
 200  DATA REDUNDANCY                : 3.400                              
 200  R MERGE                    (I) : 0.08200                            
 200  R SYM                      (I) : NULL                               
 200  <I/SIGMA(I)> FOR THE DATA SET  : 9.0000                             
 200                                                                      
 200 IN THE HIGHEST RESOLUTION SHELL.                                     
 200  HIGHEST RESOLUTION SHELL, RANGE HIGH (A) : 1.94                     
 200  HIGHEST RESOLUTION SHELL, RANGE LOW  (A) : 1.94                     
 200  COMPLETENESS FOR SHELL     (%) : 98.9                               
 200  DATA REDUNDANCY IN SHELL       : 3.60                               
 200  R MERGE FOR SHELL          (I) : 0.55200                            
 200  R SYM FOR SHELL            (I) : NULL                               
 200  <I/SIGMA(I)> FOR SHELL         : NULL                               
 200                                                                      
 200 DIFFRACTION PROTOCOL: SINGLE WAVELENGTH                              
 200 METHOD USED TO DETERMINE THE STRUCTURE: MOLECULAR REPLACEMENT        
 200 SOFTWARE USED: PHASER                                                
 200 STARTING MODEL: 4U0X                                                 
 200                                                                      
 200 REMARK: NULL                                                         
 280                                                                      
 280 CRYSTAL                                                              
 280 SOLVENT CONTENT, VS   (%): 42.88                                     
 280 MATTHEWS COEFFICIENT, VM (ANGSTROMS**3/DA): 2.15                     
 280                                                                      
 280 CRYSTALLIZATION CONDITIONS: ADC-7 (3MG/ML) IN 25% W/V POLYETHYLENE   
 280  GLYCOL (PEG) 1500, 0.1 M SUCCINATE/ PHOSPHATE/ GLYCINE, PH 5.0,     
 280  VAPOR DIFFUSION, HANGING DROP, TEMPERATURE 298K                     
 290                                                                      
 290 CRYSTALLOGRAPHIC SYMMETRY                                            
 290 SYMMETRY OPERATORS FOR SPACE GROUP: P 1 21 1                         
 290                                                                      
 290      SYMOP   SYMMETRY                                                
 290     NNNMMM   OPERATOR                                                
 290       1555   X,Y,Z                                                   
 290       2555   -X,Y+1/2,-Z                                             
 290                                                                      
 290     WHERE NNN -> OPERATOR NUMBER                                     
 290           MMM -> TRANSLATION VECTOR                                  
 290                                                                      
 290 CRYSTALLOGRAPHIC SYMMETRY TRANSFORMATIONS                            
 290 THE FOLLOWING TRANSFORMATIONS OPERATE ON THE ATOM/HETATM             
 290 RECORDS IN THIS ENTRY TO PRODUCE CRYSTALLOGRAPHICALLY                
 290 RELATED MOLECULES.                                                   
 290   SMTRY1   1  1.000000  0.000000  0.000000        0.00000            
 290   SMTRY2   1  0.000000  1.000000  0.000000        0.00000            
 290   SMTRY3   1  0.000000  0.000000  1.000000        0.00000            
 290   SMTRY1   2 -1.000000  0.000000  0.000000        0.00000            
 290   SMTRY2   2  0.000000  1.000000  0.000000       40.55150            
 290   SMTRY3   2  0.000000  0.000000 -1.000000        0.00000            
 290                                                                      
 290 REMARK: NULL                                                         
 300                                                                      
 300 BIOMOLECULE: 1, 2, 3, 4                                              
 300 SEE REMARK 350 FOR THE AUTHOR PROVIDED AND/OR PROGRAM                
 300 GENERATED ASSEMBLY INFORMATION FOR THE STRUCTURE IN                  
 300 THIS ENTRY. THE REMARK MAY ALSO PROVIDE INFORMATION ON               
 300 BURIED SURFACE AREA.                                                 
 350                                                                      
 350 COORDINATES FOR A COMPLETE MULTIMER REPRESENTING THE KNOWN           
 350 BIOLOGICALLY SIGNIFICANT OLIGOMERIZATION STATE OF THE                
 350 MOLECULE CAN BE GENERATED BY APPLYING BIOMT TRANSFORMATIONS          
 350 GIVEN BELOW.  BOTH NON-CRYSTALLOGRAPHIC AND                          
 350 CRYSTALLOGRAPHIC OPERATIONS ARE GIVEN.                               
 350                                                                      
 350 BIOMOLECULE: 1                                                       
 350 AUTHOR DETERMINED BIOLOGICAL UNIT: MONOMERIC                         
 350 SOFTWARE DETERMINED QUATERNARY STRUCTURE: MONOMERIC                  
 350 SOFTWARE USED: PISA                                                  
 350 APPLY THE FOLLOWING TO CHAINS: A                                     
 350   BIOMT1   1  1.000000  0.000000  0.000000        0.00000            
 350   BIOMT2   1  0.000000  1.000000  0.000000        0.00000            
 350   BIOMT3   1  0.000000  0.000000  1.000000        0.00000            
 350                                                                      
 350 BIOMOLECULE: 2                                                       
 350 AUTHOR DETERMINED BIOLOGICAL UNIT: MONOMERIC                         
 350 SOFTWARE DETERMINED QUATERNARY STRUCTURE: MONOMERIC                  
 350 SOFTWARE USED: PISA                                                  
 350 APPLY THE FOLLOWING TO CHAINS: B                                     
 350   BIOMT1   1  1.000000  0.000000  0.000000        0.00000            
 350   BIOMT2   1  0.000000  1.000000  0.000000        0.00000            
 350   BIOMT3   1  0.000000  0.000000  1.000000        0.00000            
 350                                                                      
 350 BIOMOLECULE: 3                                                       
 350 AUTHOR DETERMINED BIOLOGICAL UNIT: MONOMERIC                         
 350 SOFTWARE DETERMINED QUATERNARY STRUCTURE: MONOMERIC                  
 350 SOFTWARE USED: PISA                                                  
 350 APPLY THE FOLLOWING TO CHAINS: C                                     
 350   BIOMT1   1  1.000000  0.000000  0.000000        0.00000            
 350   BIOMT2   1  0.000000  1.000000  0.000000        0.00000            
 350   BIOMT3   1  0.000000  0.000000  1.000000        0.00000            
 350                                                                      
 350 BIOMOLECULE: 4                                                       
 350 AUTHOR DETERMINED BIOLOGICAL UNIT: MONOMERIC                         
 350 SOFTWARE DETERMINED QUATERNARY STRUCTURE: MONOMERIC                  
 350 SOFTWARE USED: PISA                                                  
 350 APPLY THE FOLLOWING TO CHAINS: D                                     
 350   BIOMT1   1  1.000000  0.000000  0.000000        0.00000            
 350   BIOMT2   1  0.000000  1.000000  0.000000        0.00000            
 350   BIOMT3   1  0.000000  0.000000  1.000000        0.00000            
 465                                                                      
 465 MISSING RESIDUES                                                     
 465 THE FOLLOWING RESIDUES WERE NOT LOCATED IN THE                       
 465 EXPERIMENT. (M=MODEL NUMBER; RES=RESIDUE NAME; C=CHAIN               
 465 IDENTIFIER; SSSEQ=SEQUENCE NUMBER; I=INSERTION CODE.)                
 465                                                                      
 465   M RES C SSSEQI                                                     
 465     MET A    -1                                                      
 465     ASP A     0                                                      
 465     ASN A     1                                                      
 465     THR A     2                                                      
 465     PRO A     3                                                      
 465     LYS A   359                                                      
 465     MET B    -1                                                      
 465     ASP B     0                                                      
 465     ASN B     1                                                      
 465     LYS B   359                                                      
 465     MET C    -1                                                      
 465     ASP C     0                                                      
 465     ASN C     1                                                      
 465     THR C     2                                                      
 465     ILE C   357                                                      
 465     LYS C   358                                                      
 465     LYS C   359                                                      
 465     MET D    -1                                                      
 465     ASP D     0                                                      
 465     ASN D     1                                                      
 465     LYS D   359                                                      
 470                                                                      
 470 MISSING ATOM                                                         
 470 THE FOLLOWING RESIDUES HAVE MISSING ATOMS (M=MODEL NUMBER;           
 470 RES=RESIDUE NAME; C=CHAIN IDENTIFIER; SSEQ=SEQUENCE NUMBER;          
 470 I=INSERTION CODE):                                                   
 470   M RES CSSEQI  ATOMS                                                
 470     LYS A   4    CG   CD   CE   NZ                                   
 470     ASP A   5    CG   OD1  OD2                                       
 470     GLU A   7    CG   CD   OE1  OE2                                  
 470     LYS A  10    CG   CD   CE   NZ                                   
 470     LYS A  37    CG   CD   CE   NZ                                   
 470     LYS A  80    CG   CD   CE   NZ                                   
 470     LYS A  94    CG   CD   CE   NZ                                   
 470     GLU A  95    CG   CD   OE1  OE2                                  
 470     GLU A 124    CG   CD   OE1  OE2                                  
 470     GLN A 129    CG   CD   OE1  NE2                                  
 470     LYS A 139    CG   CD   CE   NZ                                   
 470     LYS A 168    CG   CD   CE   NZ                                   
 470     LYS A 193    CG   CD   CE   NZ                                   
 470     ARG A 250    CG   CD   NE   CZ   NH1  NH2                        
 470     ASN A 253    CG   OD1  ND2                                       
 470     GLN A 257    CG   CD   OE1  NE2                                  
 470     ASN A 263    CG   OD1  ND2                                       
 470     GLU A 289    CG   CD   OE1  OE2                                  
 470     LYS A 358    CG   CD   CE   NZ                                   
 470     LYS B  10    CG   CD   CE   NZ                                   
 470     GLU B  21    CG   CD   OE1  OE2                                  
 470     GLN B 129    CG   CD   OE1  NE2                                  
 470     LYS B 185    CG   CD   CE   NZ                                   
 470     LYS B 193    CG   CD   CE   NZ                                   
 470     LYS B 243    CG   CD   CE   NZ                                   
 470     LYS B 303    CG   CD   CE   NZ                                   
 470     GLU B 344    CG   CD   OE1  OE2                                  
 470     LYS C   4    CG   CD   CE   NZ                                   
 470     GLN C   6    CG   CD   OE1  NE2                                  
 470     GLU C   7    CG   CD   OE1  OE2                                  
 470     ILE C   8    CG1  CG2  CD1                                       
 470     LYS C  10    CG   CD   CE   NZ                                   
 470     GLN C  14    CG   CD   OE1  NE2                                  
 470     GLU C  21    CG   CD   OE1  OE2                                  
 470     ASN C  35    CG   OD1  ND2                                       
 470     ASN C  36    CG   OD1  ND2                                       
 470     TYR C  39    CG   CD1  CD2  CE1  CE2  CZ   OH                    
 470     LYS C  78    CG   CD   CE   NZ                                   
 470     ASN C  98    CG   OD1  ND2                                       
 470     LYS C 139    CG   CD   CE   NZ                                   
 470     LYS C 193    CG   CD   CE   NZ                                   
 470     GLN C 205    CG   CD   OE1  NE2                                  
 470     LYS C 243    CG   CD   CE   NZ                                   
 470     THR C 246    OG1  CG2                                            
 470     ARG C 250    CG   CD   NE   CZ   NH1  NH2                        
 470     GLN C 257    CG   CD   OE1  NE2                                  
 470     GLU C 289    CG   CD   OE1  OE2                                  
 470     LYS C 294    CG   CD   CE   NZ                                   
 470     LYS C 297    CG   CD   CE   NZ                                   
 470     ILE C 301    CG1  CG2  CD1                                       
 470     SER C 302    OG                                                  
 470     LYS C 303    CG   CD   CE   NZ                                   
 470     GLU C 304    CG   CD   OE1  OE2                                  
 470     SER C 306    OG                                                  
 470     LYS C 328    CG   CD   CE   NZ                                   
 470     THR D   2    OG1  CG2                                            
 470     GLN D   6    CG   CD   OE1  NE2                                  
 470     LYS D  10    CG   CD   CE   NZ                                   
 470     ILE D  83    CG1  CG2  CD1                                       
 470     LYS D  94    CG   CD   CE   NZ                                   
 470     GLN D 103    CG   CD   OE1  NE2                                  
 470     GLU D 124    CG   CD   OE1  OE2                                  
 470     GLN D 129    CG   CD   OE1  NE2                                  
 470     PRO D 140    CG   CD                                             
 470     PRO D 143    CG   CD                                             
 470     SER D 154    OG                                                  
 470     LYS D 193    CG   CD   CE   NZ                                   
 470     LYS D 243    CG   CD   CE   NZ                                   
 470     GLU D 289    CG   CD   OE1  OE2                                  
 470     LYS D 294    CG   CD   CE   NZ                                   
 470     LYS D 297    CG   CD   CE   NZ                                   
 470     GLU D 304    CG   CD   OE1  OE2                                  
 500                                                                      
 500 GEOMETRY AND STEREOCHEMISTRY                                         
 500 SUBTOPIC: CLOSE CONTACTS IN SAME ASYMMETRIC UNIT                     
 500                                                                      
 500 THE FOLLOWING ATOMS ARE IN CLOSE CONTACT.                            
 500                                                                      
 500  ATM1  RES C  SSEQI   ATM2  RES C  SSEQI           DISTANCE          
 500   OG1  THR D    88     O    ASP D   102              2.15            
 500   OD2  ASP A   285     O    HOH A   501              2.19            
 500                                                                      
 500 REMARK: NULL                                                         
 500                                                                      
 500 GEOMETRY AND STEREOCHEMISTRY                                         
 500 SUBTOPIC: TORSION ANGLES                                             
 500                                                                      
 500 TORSION ANGLES OUTSIDE THE EXPECTED RAMACHANDRAN REGIONS:            
 500 (M=MODEL NUMBER; RES=RESIDUE NAME; C=CHAIN IDENTIFIER;               
 500 SSEQ=SEQUENCE NUMBER; I=INSERTION CODE).                             
 500                                                                      
 500 STANDARD TABLE:                                                      
 500 FORMAT:(10X,I3,1X,A3,1X,A1,I4,A1,4X,F7.2,3X,F7.2)                    
 500                                                                      
 500 EXPECTED VALUES: GJ KLEYWEGT AND TA JONES (1996). PHI/PSI-           
 500 CHOLOGY: RAMACHANDRAN REVISITED. STRUCTURE 4, 1395 - 1400            
 500                                                                      
 500  M RES CSSEQI        PSI       PHI                                   
 500    LYS A  94       95.83    -65.23                                   
 500    GLU A  95      -25.28    157.49                                   
 500    TYR A 112       30.84     75.43                                   
 500    ASN A 116       53.29   -149.79                                   
 500    GLN A 126      -44.71   -146.26                                   
 500    LYS A 141      -64.64   -130.35                                   
 500    ILE A 144      124.06    -38.32                                   
 500    TYR A 222       20.83   -165.33                                   
 500    ASN A 263     -113.80     30.42                                   
 500    SER A 302      -66.59   -103.94                                   
 500    ASN B 116       57.74   -161.14                                   
 500    GLN B 126      -55.95   -132.34                                   
 500    LYS B 141      -79.03   -137.12                                   
 500    TYR B 222       26.56   -162.82                                   
 500    ASN B 263     -119.75     58.73                                   
 500    TYR C  92      -50.33   -125.91                                   
 500    TYR C 112       24.24     80.87                                   
 500    ASN C 116       53.62   -157.85                                   
 500    GLN C 126      -59.63   -134.31                                   
 500    LYS C 141      -83.31   -133.21                                   
 500    TYR C 222       20.64   -164.18                                   
 500    ASN C 263     -114.50     71.82                                   
 500    LYS C 303      116.10   -170.27                                   
 500    SER C 306      -70.35    -49.74                                   
 500    ASN C 338       32.75    -99.31                                   
 500    ASP D  87      166.11    -48.04                                   
 500    LYS D  94       46.30    -77.02                                   
 500    GLU D  95      -13.07   -144.41                                   
 500    PRO D 100       -4.92    -52.74                                   
 500    TYR D 112       31.15     74.84                                   
 500    ASN D 116       75.23   -151.91                                   
 500    GLN D 126      -69.58   -138.06                                   
 500    LYS D 141     -102.29   -121.48                                   
 500    PRO D 143      122.88    -38.85                                   
 500    TYR D 222       27.53   -157.87                                   
 500    ASN D 263     -125.36     63.76                                   
 500    LYS D 303      112.46   -173.31                                   
 500    ALA D 356      -23.39   -140.71                                   
 500                                                                      
 500 REMARK: NULL                                                         
 800                                                                      
 800 SITE                                                                 
 800 SITE_IDENTIFIER: AC1                                                 
 800 EVIDENCE_CODE: SOFTWARE                                              
 800 SITE_DESCRIPTION: binding site for residue P1K A 401                 
 800                                                                      
 800 SITE_IDENTIFIER: AC2                                                 
 800 EVIDENCE_CODE: SOFTWARE                                              
 800 SITE_DESCRIPTION: binding site for Di-peptide P1K B 401 and SER B    
 800  64                                                                  
 800                                                                      
 800 SITE_IDENTIFIER: AC3                                                 
 800 EVIDENCE_CODE: SOFTWARE                                              
 800 SITE_DESCRIPTION: binding site for Di-peptide P1K C 401 and SER C    
 800  64                                                                  
 800                                                                      
 800 SITE_IDENTIFIER: AC4                                                 
 800 EVIDENCE_CODE: SOFTWARE                                              
 800 SITE_DESCRIPTION: binding site for Di-peptide P1K D 401 and SER D    
 800  64                                                                  

>  <DBREF>
 6TZI A    0   359  UNP    Q6DRA1   Q6DRA1_ACIBA    24    383             
 6TZI B    0   359  UNP    Q6DRA1   Q6DRA1_ACIBA    24    383             
 6TZI C    0   359  UNP    Q6DRA1   Q6DRA1_ACIBA    24    383             
 6TZI D    0   359  UNP    Q6DRA1   Q6DRA1_ACIBA    24    383             

>  <SEQADV>
 6TZI MET A   -1  UNP  Q6DRA1              EXPRESSION TAG                 
 6TZI MET B   -1  UNP  Q6DRA1              EXPRESSION TAG                 
 6TZI MET C   -1  UNP  Q6DRA1              EXPRESSION TAG                 
 6TZI MET D   -1  UNP  Q6DRA1              EXPRESSION TAG                 

>  <SEQRES>
   1 A  361  MET ASP ASN THR PRO LYS ASP GLN GLU ILE LYS LYS LEU          
   2 A  361  VAL ASP GLN ASN PHE LYS PRO LEU LEU GLU LYS TYR ASP          
   3 A  361  VAL PRO GLY MET ALA VAL GLY VAL ILE GLN ASN ASN LYS          
   4 A  361  LYS TYR GLU MET TYR TYR GLY LEU GLN SER VAL GLN ASP          
   5 A  361  LYS LYS ALA VAL ASN SER ASN THR ILE PHE GLU LEU GLY          
   6 A  361  SER VAL SER LYS LEU PHE THR ALA THR ALA GLY GLY TYR          
   7 A  361  ALA LYS ASN LYS GLY LYS ILE SER PHE ASP ASP THR PRO          
   8 A  361  GLY LYS TYR TRP LYS GLU LEU LYS ASN THR PRO ILE ASP          
   9 A  361  GLN VAL ASN LEU LEU GLN LEU ALA THR TYR THR SER GLY          
  10 A  361  ASN LEU ALA LEU GLN PHE PRO ASP GLU VAL GLN THR ASP          
  11 A  361  GLN GLN VAL LEU THR PHE PHE LYS ASP TRP LYS PRO LYS          
  12 A  361  ASN PRO ILE GLY GLU TYR ARG GLN TYR SER ASN PRO SER          
  13 A  361  ILE GLY LEU PHE GLY LYS VAL VAL ALA LEU SER MET ASN          
  14 A  361  LYS PRO PHE ASP GLN VAL LEU GLU LYS THR ILE PHE PRO          
  15 A  361  ALA LEU GLY LEU LYS HIS SER TYR VAL ASN VAL PRO LYS          
  16 A  361  THR GLN MET GLN ASN TYR ALA PHE GLY TYR ASN GLN GLU          
  17 A  361  ASN GLN PRO ILE ARG VAL ASN PRO GLY PRO LEU ASP ALA          
  18 A  361  PRO ALA TYR GLY VAL LYS SER THR LEU PRO ASP MET LEU          
  19 A  361  SER PHE ILE HIS ALA ASN LEU ASN PRO GLN LYS TYR PRO          
  20 A  361  THR ASP ILE GLN ARG ALA ILE ASN GLU THR HIS GLN GLY          
  21 A  361  ARG TYR GLN VAL ASN THR MET TYR GLN ALA LEU GLY TRP          
  22 A  361  GLU GLU PHE SER TYR PRO ALA THR LEU GLN THR LEU LEU          
  23 A  361  ASP SER ASN SER GLU GLN ILE VAL MET LYS PRO ASN LYS          
  24 A  361  VAL THR ALA ILE SER LYS GLU PRO SER VAL LYS MET TYR          
  25 A  361  HIS LYS THR GLY SER THR SER GLY PHE GLY THR TYR VAL          
  26 A  361  VAL PHE ILE PRO LYS GLU ASN ILE GLY LEU VAL MET LEU          
  27 A  361  THR ASN LYS ARG ILE PRO ASN GLU GLU ARG ILE LYS ALA          
  28 A  361  ALA TYR VAL VAL LEU ASN ALA ILE LYS LYS                      
   1 B  361  MET ASP ASN THR PRO LYS ASP GLN GLU ILE LYS LYS LEU          
   2 B  361  VAL ASP GLN ASN PHE LYS PRO LEU LEU GLU LYS TYR ASP          
   3 B  361  VAL PRO GLY MET ALA VAL GLY VAL ILE GLN ASN ASN LYS          
   4 B  361  LYS TYR GLU MET TYR TYR GLY LEU GLN SER VAL GLN ASP          
   5 B  361  LYS LYS ALA VAL ASN SER ASN THR ILE PHE GLU LEU GLY          
   6 B  361  SER VAL SER LYS LEU PHE THR ALA THR ALA GLY GLY TYR          
   7 B  361  ALA LYS ASN LYS GLY LYS ILE SER PHE ASP ASP THR PRO          
   8 B  361  GLY LYS TYR TRP LYS GLU LEU LYS ASN THR PRO ILE ASP          
   9 B  361  GLN VAL ASN LEU LEU GLN LEU ALA THR TYR THR SER GLY          
  10 B  361  ASN LEU ALA LEU GLN PHE PRO ASP GLU VAL GLN THR ASP          
  11 B  361  GLN GLN VAL LEU THR PHE PHE LYS ASP TRP LYS PRO LYS          
  12 B  361  ASN PRO ILE GLY GLU TYR ARG GLN TYR SER ASN PRO SER          
  13 B  361  ILE GLY LEU PHE GLY LYS VAL VAL ALA LEU SER MET ASN          
  14 B  361  LYS PRO PHE ASP GLN VAL LEU GLU LYS THR ILE PHE PRO          
  15 B  361  ALA LEU GLY LEU LYS HIS SER TYR VAL ASN VAL PRO LYS          
  16 B  361  THR GLN MET GLN ASN TYR ALA PHE GLY TYR ASN GLN GLU          
  17 B  361  ASN GLN PRO ILE ARG VAL ASN PRO GLY PRO LEU ASP ALA          
  18 B  361  PRO ALA TYR GLY VAL LYS SER THR LEU PRO ASP MET LEU          
  19 B  361  SER PHE ILE HIS ALA ASN LEU ASN PRO GLN LYS TYR PRO          
  20 B  361  THR ASP ILE GLN ARG ALA ILE ASN GLU THR HIS GLN GLY          
  21 B  361  ARG TYR GLN VAL ASN THR MET TYR GLN ALA LEU GLY TRP          
  22 B  361  GLU GLU PHE SER TYR PRO ALA THR LEU GLN THR LEU LEU          
  23 B  361  ASP SER ASN SER GLU GLN ILE VAL MET LYS PRO ASN LYS          
  24 B  361  VAL THR ALA ILE SER LYS GLU PRO SER VAL LYS MET TYR          
  25 B  361  HIS LYS THR GLY SER THR SER GLY PHE GLY THR TYR VAL          
  26 B  361  VAL PHE ILE PRO LYS GLU ASN ILE GLY LEU VAL MET LEU          
  27 B  361  THR ASN LYS ARG ILE PRO ASN GLU GLU ARG ILE LYS ALA          
  28 B  361  ALA TYR VAL VAL LEU ASN ALA ILE LYS LYS                      
   1 C  361  MET ASP ASN THR PRO LYS ASP GLN GLU ILE LYS LYS LEU          
   2 C  361  VAL ASP GLN ASN PHE LYS PRO LEU LEU GLU LYS TYR ASP          
   3 C  361  VAL PRO GLY MET ALA VAL GLY VAL ILE GLN ASN ASN LYS          
   4 C  361  LYS TYR GLU MET TYR TYR GLY LEU GLN SER VAL GLN ASP          
   5 C  361  LYS LYS ALA VAL ASN SER ASN THR ILE PHE GLU LEU GLY          
   6 C  361  SER VAL SER LYS LEU PHE THR ALA THR ALA GLY GLY TYR          
   7 C  361  ALA LYS ASN LYS GLY LYS ILE SER PHE ASP ASP THR PRO          
   8 C  361  GLY LYS TYR TRP LYS GLU LEU LYS ASN THR PRO ILE ASP          
   9 C  361  GLN VAL ASN LEU LEU GLN LEU ALA THR TYR THR SER GLY          
  10 C  361  ASN LEU ALA LEU GLN PHE PRO ASP GLU VAL GLN THR ASP          
  11 C  361  GLN GLN VAL LEU THR PHE PHE LYS ASP TRP LYS PRO LYS          
  12 C  361  ASN PRO ILE GLY GLU TYR ARG GLN TYR SER ASN PRO SER          
  13 C  361  ILE GLY LEU PHE GLY LYS VAL VAL ALA LEU SER MET ASN          
  14 C  361  LYS PRO PHE ASP GLN VAL LEU GLU LYS THR ILE PHE PRO          
  15 C  361  ALA LEU GLY LEU LYS HIS SER TYR VAL ASN VAL PRO LYS          
  16 C  361  THR GLN MET GLN ASN TYR ALA PHE GLY TYR ASN GLN GLU          
  17 C  361  ASN GLN PRO ILE ARG VAL ASN PRO GLY PRO LEU ASP ALA          
  18 C  361  PRO ALA TYR GLY VAL LYS SER THR LEU PRO ASP MET LEU          
  19 C  361  SER PHE ILE HIS ALA ASN LEU ASN PRO GLN LYS TYR PRO          
  20 C  361  THR ASP ILE GLN ARG ALA ILE ASN GLU THR HIS GLN GLY          
  21 C  361  ARG TYR GLN VAL ASN THR MET TYR GLN ALA LEU GLY TRP          
  22 C  361  GLU GLU PHE SER TYR PRO ALA THR LEU GLN THR LEU LEU          
  23 C  361  ASP SER ASN SER GLU GLN ILE VAL MET LYS PRO ASN LYS          
  24 C  361  VAL THR ALA ILE SER LYS GLU PRO SER VAL LYS MET TYR          
  25 C  361  HIS LYS THR GLY SER THR SER GLY PHE GLY THR TYR VAL          
  26 C  361  VAL PHE ILE PRO LYS GLU ASN ILE GLY LEU VAL MET LEU          
  27 C  361  THR ASN LYS ARG ILE PRO ASN GLU GLU ARG ILE LYS ALA          
  28 C  361  ALA TYR VAL VAL LEU ASN ALA ILE LYS LYS                      
   1 D  361  MET ASP ASN THR PRO LYS ASP GLN GLU ILE LYS LYS LEU          
   2 D  361  VAL ASP GLN ASN PHE LYS PRO LEU LEU GLU LYS TYR ASP          
   3 D  361  VAL PRO GLY MET ALA VAL GLY VAL ILE GLN ASN ASN LYS          
   4 D  361  LYS TYR GLU MET TYR TYR GLY LEU GLN SER VAL GLN ASP          
   5 D  361  LYS LYS ALA VAL ASN SER ASN THR ILE PHE GLU LEU GLY          
   6 D  361  SER VAL SER LYS LEU PHE THR ALA THR ALA GLY GLY TYR          
   7 D  361  ALA LYS ASN LYS GLY LYS ILE SER PHE ASP ASP THR PRO          
   8 D  361  GLY LYS TYR TRP LYS GLU LEU LYS ASN THR PRO ILE ASP          
   9 D  361  GLN VAL ASN LEU LEU GLN LEU ALA THR TYR THR SER GLY          
  10 D  361  ASN LEU ALA LEU GLN PHE PRO ASP GLU VAL GLN THR ASP          
  11 D  361  GLN GLN VAL LEU THR PHE PHE LYS ASP TRP LYS PRO LYS          
  12 D  361  ASN PRO ILE GLY GLU TYR ARG GLN TYR SER ASN PRO SER          
  13 D  361  ILE GLY LEU PHE GLY LYS VAL VAL ALA LEU SER MET ASN          
  14 D  361  LYS PRO PHE ASP GLN VAL LEU GLU LYS THR ILE PHE PRO          
  15 D  361  ALA LEU GLY LEU LYS HIS SER TYR VAL ASN VAL PRO LYS          
  16 D  361  THR GLN MET GLN ASN TYR ALA PHE GLY TYR ASN GLN GLU          
  17 D  361  ASN GLN PRO ILE ARG VAL ASN PRO GLY PRO LEU ASP ALA          
  18 D  361  PRO ALA TYR GLY VAL LYS SER THR LEU PRO ASP MET LEU          
  19 D  361  SER PHE ILE HIS ALA ASN LEU ASN PRO GLN LYS TYR PRO          
  20 D  361  THR ASP ILE GLN ARG ALA ILE ASN GLU THR HIS GLN GLY          
  21 D  361  ARG TYR GLN VAL ASN THR MET TYR GLN ALA LEU GLY TRP          
  22 D  361  GLU GLU PHE SER TYR PRO ALA THR LEU GLN THR LEU LEU          
  23 D  361  ASP SER ASN SER GLU GLN ILE VAL MET LYS PRO ASN LYS          
  24 D  361  VAL THR ALA ILE SER LYS GLU PRO SER VAL LYS MET TYR          
  25 D  361  HIS LYS THR GLY SER THR SER GLY PHE GLY THR TYR VAL          
  26 D  361  VAL PHE ILE PRO LYS GLU ASN ILE GLY LEU VAL MET LEU          
  27 D  361  THR ASN LYS ARG ILE PRO ASN GLU GLU ARG ILE LYS ALA          
  28 D  361  ALA TYR VAL VAL LEU ASN ALA ILE LYS LYS                      

>  <HET>
 P1K  A 401      46                                                       
 P1K  B 401      23                                                       
 P1K  C 401      23                                                       
 P1K  D 401      23                                                       

>  <HETNAM>
     P1K PHOSPHONOOXY-[[4-[[2,2,2-TRIS(FLUORANYL)                         
   2 P1K  ETHYLSULFONYLAMINO]METHYL]-1,2,3-TRIAZOL-1-                     
   3 P1K  YL]METHYL]BORINIC ACID                                          

>  <FORMUL>
   5  P1K    4(C6 H11 B F3 N4 O7 P S)                                     
   9  HOH   *871(H2 O)                                                    

>  <HELIX>
   1 AA1 LYS A    4  GLN A    6  5                                   3    
   2 AA2 GLU A    7  PHE A   16  1                                  10    
   3 AA3 PRO A   18  ASP A   24  1                                   7    
   4 AA4 GLY A   63  VAL A   65  5                                   3    
   5 AA5 SER A   66  LYS A   80  1                                  15    
   6 AA6 THR A   88  TYR A   92  5                                   5    
   7 AA7 THR A   99  VAL A  104  5                                   6    
   8 AA8 ASN A  105  THR A  111  1                                   7    
   9 AA9 THR A  127  ASP A  137  1                                  11    
  10 AB1 SER A  151  MET A  166  1                                  16    
  11 AB2 PRO A  169  THR A  177  1                                   9    
  12 AB3 THR A  177  LEU A  182  1                                   6    
  13 AB4 PRO A  192  TYR A  199  5                                   8    
  14 AB5 LEU A  217  GLY A  223  1                                   7    
  15 AB6 THR A  227  ASN A  240  1                                  14    
  16 AB7 PRO A  241  TYR A  244  5                                   4    
  17 AB8 PRO A  245  HIS A  256  1                                  12    
  18 AB9 THR A  279  SER A  286  1                                   8    
  19 AC1 SER A  288  LYS A  294  1                                   7    
  20 AC2 PRO A  327  GLU A  329  5                                   3    
  21 AC3 PRO A  342  LYS A  358  1                                  17    
  22 AC4 PRO B    3  PHE B   16  1                                  14    
  23 AC5 PHE B   16  ASP B   24  1                                   9    
  24 AC6 VAL B   65  LYS B   80  1                                  16    
  25 AC7 THR B   88  TYR B   92  5                                   5    
  26 AC8 TRP B   93  LYS B   97  5                                   5    
  27 AC9 THR B   99  VAL B  104  5                                   6    
  28 AD1 ASN B  105  THR B  111  1                                   7    
  29 AD2 THR B  127  TRP B  138  1                                  12    
  30 AD3 SER B  151  MET B  166  1                                  16    
  31 AD4 PRO B  169  THR B  177  1                                   9    
  32 AD5 THR B  177  LEU B  182  1                                   6    
  33 AD6 PRO B  192  TYR B  199  5                                   8    
  34 AD7 LEU B  217  GLY B  223  1                                   7    
  35 AD8 THR B  227  ASN B  240  1                                  14    
  36 AD9 PRO B  241  TYR B  244  5                                   4    
  37 AE1 PRO B  245  HIS B  256  1                                  12    
  38 AE2 THR B  279  SER B  286  1                                   8    
  39 AE3 SER B  288  LYS B  294  1                                   7    
  40 AE4 PRO B  327  GLU B  329  5                                   3    
  41 AE5 PRO B  342  ILE B  357  1                                  16    
  42 AE6 LYS C    4  ASP C   24  1                                  21    
  43 AE7 GLY C   63  VAL C   65  5                                   3    
  44 AE8 SER C   66  LYS C   80  1                                  15    
  45 AE9 THR C   88  TYR C   92  5                                   5    
  46 AF1 TRP C   93  LYS C   97  5                                   5    
  47 AF2 THR C   99  VAL C  104  5                                   6    
  48 AF3 ASN C  105  THR C  111  1                                   7    
  49 AF4 THR C  127  ASP C  137  1                                  11    
  50 AF5 SER C  151  MET C  166  1                                  16    
  51 AF6 PRO C  169  THR C  177  1                                   9    
  52 AF7 THR C  177  GLY C  183  1                                   7    
  53 AF8 PRO C  192  TYR C  199  5                                   8    
  54 AF9 LEU C  217  GLY C  223  1                                   7    
  55 AG1 THR C  227  ASN C  240  1                                  14    
  56 AG2 PRO C  241  TYR C  244  5                                   4    
  57 AG3 PRO C  245  THR C  255  1                                  11    
  58 AG4 THR C  279  SER C  286  1                                   8    
  59 AG5 SER C  288  LYS C  294  1                                   7    
  60 AG6 PRO C  342  ALA C  356  1                                  15    
  61 AG7 PRO D    3  PHE D   16  1                                  14    
  62 AG8 LYS D   17  ASP D   24  1                                   8    
  63 AG9 VAL D   65  GLY D   81  1                                  17    
  64 AH1 THR D   88  TYR D   92  5                                   5    
  65 AH2 ASN D  105  THR D  111  1                                   7    
  66 AH3 THR D  127  ASP D  137  1                                  11    
  67 AH4 SER D  151  MET D  166  1                                  16    
  68 AH5 PRO D  169  THR D  177  1                                   9    
  69 AH6 THR D  177  GLY D  183  1                                   7    
  70 AH7 PRO D  192  TYR D  199  5                                   8    
  71 AH8 LEU D  217  GLY D  223  1                                   7    
  72 AH9 THR D  227  ASN D  240  1                                  14    
  73 AI1 PRO D  241  TYR D  244  5                                   4    
  74 AI2 PRO D  245  THR D  255  1                                  11    
  75 AI3 THR D  279  SER D  286  1                                   8    
  76 AI4 SER D  288  LYS D  294  1                                   7    
  77 AI5 PRO D  327  GLU D  329  5                                   3    
  78 AI6 PRO D  342  ASN D  355  1                                  14    

>  <SHEET>
   1 AA1 9 LYS A  52  ALA A  53  0                                        
   2 AA1 9 LYS A  37  SER A  47 -1  N  GLN A  46   O  LYS A  52           
   3 AA1 9 GLY A  27  GLN A  34 -1  N  VAL A  32   O  TYR A  39           
   4 AA1 9 ILE A 331  THR A 337 -1  O  LEU A 336   N  ALA A  29           
   5 AA1 9 PHE A 319  ILE A 326 -1  N  ILE A 326   O  ILE A 331           
   6 AA1 9 LYS A 308  THR A 316 -1  N  TYR A 310   O  PHE A 325           
   7 AA1 9 GLU A 272  SER A 275 -1  N  PHE A 274   O  MET A 309           
   8 AA1 9 MET A 265  GLN A 267 -1  N  TYR A 266   O  GLU A 273           
   9 AA1 9 TYR A 260  VAL A 262 -1  N  VAL A 262   O  MET A 265           
   1 AA2 2 PHE A  60  GLU A  61  0                                        
   2 AA2 2 LYS A 225  SER A 226 -1  O  SER A 226   N  PHE A  60           
   1 AA3 2 TYR A 147  ARG A 148  0                                        
   2 AA3 2 ASN A 296  LYS A 297 -1  O  ASN A 296   N  ARG A 148           
   1 AA4 2 GLY A 202  TYR A 203  0                                        
   2 AA4 2 PRO A 209  ILE A 210 -1  O  ILE A 210   N  GLY A 202           
   1 AA5 9 LYS B  52  ALA B  53  0                                        
   2 AA5 9 LYS B  37  SER B  47 -1  N  GLN B  46   O  LYS B  52           
   3 AA5 9 GLY B  27  GLN B  34 -1  N  GLN B  34   O  LYS B  37           
   4 AA5 9 ILE B 331  THR B 337 -1  O  LEU B 336   N  ALA B  29           
   5 AA5 9 PHE B 319  ILE B 326 -1  N  GLY B 320   O  THR B 337           
   6 AA5 9 LYS B 308  THR B 316 -1  N  GLY B 314   O  THR B 321           
   7 AA5 9 GLU B 272  SER B 275 -1  N  PHE B 274   O  MET B 309           
   8 AA5 9 MET B 265  GLN B 267 -1  N  TYR B 266   O  GLU B 273           
   9 AA5 9 TYR B 260  VAL B 262 -1  N  TYR B 260   O  GLN B 267           
   1 AA6 2 PHE B  60  GLU B  61  0                                        
   2 AA6 2 LYS B 225  SER B 226 -1  O  SER B 226   N  PHE B  60           
   1 AA7 2 TYR B 147  ARG B 148  0                                        
   2 AA7 2 ASN B 296  LYS B 297 -1  O  ASN B 296   N  ARG B 148           
   1 AA8 2 GLY B 202  TYR B 203  0                                        
   2 AA8 2 PRO B 209  ILE B 210 -1  O  ILE B 210   N  GLY B 202           
   1 AA9 9 LYS C  52  ALA C  53  0                                        
   2 AA9 9 LYS C  37  SER C  47 -1  N  SER C  47   O  LYS C  52           
   3 AA9 9 GLY C  27  GLN C  34 -1  N  VAL C  30   O  MET C  41           
   4 AA9 9 ILE C 331  THR C 337 -1  O  GLY C 332   N  ILE C  33           
   5 AA9 9 GLY C 320  ILE C 326 -1  N  GLY C 320   O  THR C 337           
   6 AA9 9 LYS C 308  SER C 315 -1  N  LYS C 312   O  VAL C 323           
   7 AA9 9 GLU C 272  SER C 275 -1  N  PHE C 274   O  MET C 309           
   8 AA9 9 MET C 265  GLN C 267 -1  N  TYR C 266   O  GLU C 273           
   9 AA9 9 TYR C 260  VAL C 262 -1  N  VAL C 262   O  MET C 265           
   1 AB1 2 PHE C  60  GLU C  61  0                                        
   2 AB1 2 LYS C 225  SER C 226 -1  O  SER C 226   N  PHE C  60           
   1 AB2 2 TYR C 147  ARG C 148  0                                        
   2 AB2 2 ASN C 296  LYS C 297 -1  O  ASN C 296   N  ARG C 148           
   1 AB3 2 GLY C 202  TYR C 203  0                                        
   2 AB3 2 PRO C 209  ILE C 210 -1  O  ILE C 210   N  GLY C 202           
   1 AB4 9 LYS D  52  ALA D  53  0                                        
   2 AB4 9 LYS D  37  SER D  47 -1  N  GLN D  46   O  LYS D  52           
   3 AB4 9 GLY D  27  GLN D  34 -1  N  MET D  28   O  TYR D  43           
   4 AB4 9 ILE D 331  THR D 337 -1  O  VAL D 334   N  GLY D  31           
   5 AB4 9 PHE D 319  ILE D 326 -1  N  ILE D 326   O  ILE D 331           
   6 AB4 9 LYS D 308  THR D 316 -1  N  GLY D 314   O  THR D 321           
   7 AB4 9 GLU D 272  SER D 275 -1  N  GLU D 272   O  HIS D 311           
   8 AB4 9 MET D 265  GLN D 267 -1  N  TYR D 266   O  GLU D 273           
   9 AB4 9 TYR D 260  VAL D 262 -1  N  VAL D 262   O  MET D 265           
   1 AB5 2 PHE D  60  GLU D  61  0                                        
   2 AB5 2 LYS D 225  SER D 226 -1  O  SER D 226   N  PHE D  60           
   1 AB6 2 TYR D 147  ARG D 148  0                                        
   2 AB6 2 ASN D 296  LYS D 297 -1  O  ASN D 296   N  ARG D 148           
   1 AB7 2 GLY D 202  TYR D 203  0                                        
   2 AB7 2 PRO D 209  ILE D 210 -1  O  ILE D 210   N  GLY D 202           

>  <LINK>
       OG  SER A  64                 B1 AP1K A 401     1555   1555  1.42  
       OG  SER A  64                 B1 BP1K A 401     1555   1555  1.46  
       OG  SER B  64                 B1  P1K B 401     1555   1555  1.43  
       OG  SER C  64                 B1  P1K C 401     1555   1555  1.43  
       OG  SER D  64                 B1  P1K D 401     1555   1555  1.43  

>  <CISPEP>
   1 TYR A  276    PRO A  277          0         1.59                     
   2 TYR B  276    PRO B  277          0         1.59                     
   3 TYR C  276    PRO C  277          0        -4.55                     
   4 TYR D  276    PRO D  277          0         6.37                     

>  <SITE>
   1 AC1 15 SER A  64  GLN A 120  TYR A 150  ASN A 152                    
   2 AC1 15 LYS A 312  THR A 313  GLY A 314  SER A 315                    
   3 AC1 15 THR A 316  SER A 317  ARG A 340  HOH A 502                    
   4 AC1 15 HOH A 557  HOH A 599  HOH A 648                               
   1 AC2 20 LEU B  62  GLY B  63  VAL B  65  SER B  66                    
   2 AC2 20 LYS B  67  GLN B 120  TYR B 150  ASN B 152                    
   3 AC2 20 LYS B 312  THR B 313  GLY B 314  SER B 315                    
   4 AC2 20 THR B 316  SER B 317  ARG B 340  HOH B 504                    
   5 AC2 20 HOH B 516  HOH B 556  HOH B 718  HOH B 734                    
   1 AC3 17 LEU C  62  GLY C  63  VAL C  65  SER C  66                    
   2 AC3 17 LYS C  67  GLN C 120  TYR C 150  ASN C 152                    
   3 AC3 17 LYS C 312  THR C 313  GLY C 314  SER C 315                    
   4 AC3 17 THR C 316  SER C 317  ARG C 340  HOH C 504                    
   5 AC3 17 HOH C 583                                                     
   1 AC4 18 LEU D  62  GLY D  63  VAL D  65  SER D  66                    
   2 AC4 18 LYS D  67  GLN D 120  TYR D 150  ASN D 152                    
   3 AC4 18 ALA D 221  LYS D 312  THR D 313  GLY D 314                    
   4 AC4 18 SER D 315  THR D 316  SER D 317  ARG D 340                    
   5 AC4 18 HOH D 516  HOH D 575                                          

>  <ORIGX1>
      1.000000  0.000000  0.000000        0.00000                         

>  <ORIGX2>
      0.000000  1.000000  0.000000        0.00000                         

>  <ORIGX3>
      0.000000  0.000000  1.000000        0.00000                         

>  <SCALE1>
      0.011245  0.000000  0.004788        0.00000                         

>  <SCALE2>
      0.000000  0.012330  0.000000        0.00000                         

>  <SCALE3>
      0.000000  0.000000  0.010259        0.00000                         

>  <MASTER>
      448    0    4   78   60    0   19    612024    4  119  112          

$$$$
