start_structures/Ligand_Substrate/Ligand_Complex_Stripped/PBC_6UQU.pdb
 OpenBabel08222315213D

 15 15  0  0  1  0  0  0  0  0999 V2000
    7.4670    8.1930   16.5060 N   0  0  0  0  0  0  0  0  0  0  0  0
    7.0640    7.3690   17.6440 C   0  0  2  0  0  0  0  0  0  0  0  0
    6.7710    5.9220   17.3690 C   0  0  0  0  0  0  0  0  0  0  0  0
    6.6040    5.1680   18.3220 O   0  0  0  0  0  0  0  0  0  0  0  0
    5.8920    8.0110   18.3230 C   0  0  0  0  0  0  0  0  0  0  0  0
    6.2450    9.2410   18.9130 O   0  0  0  0  0  0  0  0  0  0  0  0
    5.6680   10.4830   18.3650 B   0  0  0  0  0  0  0  0  0  0  0  0
    4.1910   10.4290   18.6020 O   0  0  0  0  0  0  0  0  0  0  0  0
    5.9640   10.5380   16.9040 O   0  0  0  0  0  0  0  0  0  0  0  0
    6.4370   13.1910   21.1420 C   0  0  0  0  0  0  0  0  0  0  0  0
    7.7010   13.6390   20.7660 C   0  0  0  0  0  0  0  0  0  0  0  0
    8.3060   13.1420   19.6380 C   0  0  0  0  0  0  0  0  0  0  0  0
    7.6620   12.1290   18.9000 C   0  0  0  0  0  0  0  0  0  0  0  0
    6.3630   11.6670   19.1940 C   0  0  0  0  0  0  0  0  0  0  0  0
    5.8130   12.2030   20.3670 C   0  0  0  0  0  0  0  0  0  0  0  0
  2  1  1  6  0  0  0
  2  5  1  0  0  0  0
  3  2  1  0  0  0  0
  3  4  2  0  0  0  0
  5  6  1  0  0  0  0
  6  7  1  0  0  0  0
  7  8  1  0  0  0  0
  7  9  1  0  0  0  0
  7 14  1  0  0  0  0
 10 11  2  0  0  0  0
 10 15  1  0  0  0  0
 11 12  1  0  0  0  0
 12 13  2  0  0  0  0
 13 14  1  0  0  0  0
 14 15  2  0  0  0  0
M  END
>  <HEADER>
    ANTIBIOTIC                              21-OCT-19   6UQU              

>  <TITLE>
    SERENDIPITOUS DISCOVERY OF ARYL BORONIC ACIDS AS BETA-LACTAMASE       
   2 INHIBITORS                                                           

>  <COMPND>
    MOL_ID: 1;                                                            
   2 MOLECULE: BETA-LACTAMASE;                                            
   3 CHAIN: A;                                                            
   4 EC: 3.5.2.6;                                                         
   5 ENGINEERED: YES;                                                     
   6 MUTATION: YES                                                        

>  <SOURCE>
    MOL_ID: 1;                                                            
   2 ORGANISM_SCIENTIFIC: PSEUDOMONAS AERUGINOSA;                         
   3 ORGANISM_TAXID: 287;                                                 
   4 GENE: AMPC, RW109_RW109_01564;                                       
   5 EXPRESSION_SYSTEM: ESCHERICHIA COLI;                                 
   6 EXPRESSION_SYSTEM_TAXID: 562                                         

>  <KEYWDS>
    BORONIC ACID INHIBITORS, DRUG RESISTANCE, ANTIBIOTIC                  

>  <EXPDTA>
    X-RAY DIFFRACTION                                                     

>  <AUTHOR>
    G.SCAPIN                                                              

>  <REVDAT>
   3   15-JAN-20 6UQU    1       JRNL                                     
   2   04-DEC-19 6UQU    1       JRNL                                     
   1   30-OCT-19 6UQU    0                                                

>  <JRNL>
      AUTH   S.W.YANG,J.PAN,Y.ROOT,G.SCAPIN,L.XIAO,J.SU                   
      TITL   SERENDIPITOUS DISCOVERY OF ARYL BORONIC ACIDS AS             
      TITL 2 BETA-LACTAMASE INHIBITORS.                                   
      REF    BIOORG.MED.CHEM.LETT.         V.  30 26795 2020              
      REFN                   ESSN 1464-3405                               
      PMID   31759850                                                     
      DOI    10.1016/J.BMCL.2019.126795                                   

>  <REMARK>
   2                                                                      
   2 RESOLUTION.    1.09 ANGSTROMS.                                       
   3                                                                      
   3 REFINEMENT.                                                          
   3   PROGRAM     : REFMAC 5.8.0123                                      
   3   AUTHORS     : MURSHUDOV,SKUBAK,LEBEDEV,PANNU,STEINER,              
   3               : NICHOLLS,WINN,LONG,VAGIN                             
   3                                                                      
   3    REFINEMENT TARGET : NULL                                          
   3                                                                      
   3  DATA USED IN REFINEMENT.                                            
   3   RESOLUTION RANGE HIGH (ANGSTROMS) : 1.09                           
   3   RESOLUTION RANGE LOW  (ANGSTROMS) : 59.35                          
   3   DATA CUTOFF            (SIGMA(F)) : 0.000                          
   3   COMPLETENESS FOR RANGE        (%) : 99.9                           
   3   NUMBER OF REFLECTIONS             : 134800                         
   3                                                                      
   3  FIT TO DATA USED IN REFINEMENT.                                     
   3   CROSS-VALIDATION METHOD          : THROUGHOUT                      
   3   FREE R VALUE TEST SET SELECTION  : RANDOM                          
   3   R VALUE     (WORKING + TEST SET) : 0.129                           
   3   R VALUE            (WORKING SET) : 0.128                           
   3   FREE R VALUE                     : 0.148                           
   3   FREE R VALUE TEST SET SIZE   (%) : 5.000                           
   3   FREE R VALUE TEST SET COUNT      : 7134                            
   3                                                                      
   3  FIT IN THE HIGHEST RESOLUTION BIN.                                  
   3   TOTAL NUMBER OF BINS USED           : 20                           
   3   BIN RESOLUTION RANGE HIGH       (A) : 1.09                         
   3   BIN RESOLUTION RANGE LOW        (A) : 1.12                         
   3   REFLECTION IN BIN     (WORKING SET) : 9856                         
   3   BIN COMPLETENESS (WORKING+TEST) (%) : 99.67                        
   3   BIN R VALUE           (WORKING SET) : 0.2360                       
   3   BIN FREE R VALUE SET COUNT          : 483                          
   3   BIN FREE R VALUE                    : 0.2500                       
   3                                                                      
   3  NUMBER OF NON-HYDROGEN ATOMS USED IN REFINEMENT.                    
   3   PROTEIN ATOMS            : 2790                                    
   3   NUCLEIC ACID ATOMS       : 0                                       
   3   HETEROGEN ATOMS          : 10                                      
   3   SOLVENT ATOMS            : 564                                     
   3                                                                      
   3  B VALUES.                                                           
   3   FROM WILSON PLOT           (A**2) : NULL                           
   3   MEAN B VALUE      (OVERALL, A**2) : 10.52                          
   3   OVERALL ANISOTROPIC B VALUE.                                       
   3    B11 (A**2) : -0.21000                                             
   3    B22 (A**2) : -0.13000                                             
   3    B33 (A**2) : 0.34000                                              
   3    B12 (A**2) : 0.00000                                              
   3    B13 (A**2) : 0.00000                                              
   3    B23 (A**2) : 0.00000                                              
   3                                                                      
   3  ESTIMATED OVERALL COORDINATE ERROR.                                 
   3   ESU BASED ON R VALUE                            (A): 0.026         
   3   ESU BASED ON FREE R VALUE                       (A): 0.026         
   3   ESU BASED ON MAXIMUM LIKELIHOOD                 (A): 0.017         
   3   ESU FOR B VALUES BASED ON MAXIMUM LIKELIHOOD (A**2): 0.759         
   3                                                                      
   3 CORRELATION COEFFICIENTS.                                            
   3   CORRELATION COEFFICIENT FO-FC      : 0.978                         
   3   CORRELATION COEFFICIENT FO-FC FREE : 0.970                         
   3                                                                      
   3  RMS DEVIATIONS FROM IDEAL VALUES        COUNT    RMS    WEIGHT      
   3   BOND LENGTHS REFINED ATOMS        (A):  2933 ; 0.011 ; 0.019       
   3   BOND LENGTHS OTHERS               (A):  2782 ; 0.002 ; 0.020       
   3   BOND ANGLES REFINED ATOMS   (DEGREES):  4001 ; 1.546 ; 1.978       
   3   BOND ANGLES OTHERS          (DEGREES):  6394 ; 0.941 ; 3.000       
   3   TORSION ANGLES, PERIOD 1    (DEGREES):   380 ; 6.272 ; 5.000       
   3   TORSION ANGLES, PERIOD 2    (DEGREES):   135 ;34.244 ;23.630       
   3   TORSION ANGLES, PERIOD 3    (DEGREES):   462 ;12.125 ;15.000       
   3   TORSION ANGLES, PERIOD 4    (DEGREES):    23 ;12.962 ;15.000       
   3   CHIRAL-CENTER RESTRAINTS       (A**3):   431 ; 0.098 ; 0.200       
   3   GENERAL PLANES REFINED ATOMS      (A):  3400 ; 0.009 ; 0.021       
   3   GENERAL PLANES OTHERS             (A):   686 ; 0.002 ; 0.020       
   3   NON-BONDED CONTACTS REFINED ATOMS (A):  NULL ;  NULL ;  NULL       
   3   NON-BONDED CONTACTS OTHERS        (A):  NULL ;  NULL ;  NULL       
   3   NON-BONDED TORSION REFINED ATOMS  (A):  NULL ;  NULL ;  NULL       
   3   NON-BONDED TORSION OTHERS         (A):  NULL ;  NULL ;  NULL       
   3   H-BOND (X...Y) REFINED ATOMS      (A):  NULL ;  NULL ;  NULL       
   3   H-BOND (X...Y) OTHERS             (A):  NULL ;  NULL ;  NULL       
   3   POTENTIAL METAL-ION REFINED ATOMS (A):  NULL ;  NULL ;  NULL       
   3   POTENTIAL METAL-ION OTHERS        (A):  NULL ;  NULL ;  NULL       
   3   SYMMETRY VDW REFINED ATOMS        (A):  NULL ;  NULL ;  NULL       
   3   SYMMETRY VDW OTHERS               (A):  NULL ;  NULL ;  NULL       
   3   SYMMETRY H-BOND REFINED ATOMS     (A):  NULL ;  NULL ;  NULL       
   3   SYMMETRY H-BOND OTHERS            (A):  NULL ;  NULL ;  NULL       
   3   SYMMETRY METAL-ION REFINED ATOMS  (A):  NULL ;  NULL ;  NULL       
   3   SYMMETRY METAL-ION OTHERS         (A):  NULL ;  NULL ;  NULL       
   3                                                                      
   3  ISOTROPIC THERMAL FACTOR RESTRAINTS.     COUNT   RMS    WEIGHT      
   3   MAIN-CHAIN BOND REFINED ATOMS  (A**2):  NULL ;  NULL ;  NULL       
   3   MAIN-CHAIN BOND OTHER ATOMS    (A**2):  NULL ;  NULL ;  NULL       
   3   MAIN-CHAIN ANGLE REFINED ATOMS (A**2):  NULL ;  NULL ;  NULL       
   3   MAIN-CHAIN ANGLE OTHER ATOMS   (A**2):  NULL ;  NULL ;  NULL       
   3   SIDE-CHAIN BOND REFINED ATOMS  (A**2):  NULL ;  NULL ;  NULL       
   3   SIDE-CHAIN BOND OTHER ATOMS    (A**2):  NULL ;  NULL ;  NULL       
   3   SIDE-CHAIN ANGLE REFINED ATOMS (A**2):  NULL ;  NULL ;  NULL       
   3   SIDE-CHAIN ANGLE OTHER ATOMS   (A**2):  NULL ;  NULL ;  NULL       
   3   LONG RANGE B REFINED ATOMS     (A**2):  NULL ;  NULL ;  NULL       
   3   LONG RANGE B OTHER ATOMS       (A**2):  NULL ;  NULL ;  NULL       
   3                                                                      
   3 ANISOTROPIC THERMAL FACTOR RESTRAINTS.    COUNT   RMS   WEIGHT       
   3   RIGID-BOND RESTRAINTS          (A**2):  5715 ; 1.728 ; 3.000       
   3   SPHERICITY; FREE ATOMS         (A**2):    98 ;23.777 ; 5.000       
   3   SPHERICITY; BONDED ATOMS       (A**2):  6113 ; 6.237 ; 5.000       
   3                                                                      
   3  NCS RESTRAINTS STATISTICS                                           
   3   NUMBER OF DIFFERENT NCS GROUPS : NULL                              
   3                                                                      
   3  TLS DETAILS                                                         
   3   NUMBER OF TLS GROUPS  : NULL                                       
   3                                                                      
   3  BULK SOLVENT MODELLING.                                             
   3   METHOD USED : NULL                                                 
   3   PARAMETERS FOR MASK CALCULATION                                    
   3   VDW PROBE RADIUS   : 1.20                                          
   3   ION PROBE RADIUS   : 0.80                                          
   3   SHRINKAGE RADIUS   : 0.80                                          
   3                                                                      
   3  OTHER REFINEMENT REMARKS: HYDROGENS HAVE BEEN ADDED IN THE RIDING   
   3  POSITIONS U VALUES : REFINED INDIVIDUALLY                           
   4                                                                      
   4 6UQU COMPLIES WITH FORMAT V. 3.30, 13-JUL-11                         
 100                                                                      
 100 THIS ENTRY HAS BEEN PROCESSED BY RCSB ON 23-OCT-19.                  
 100 THE DEPOSITION ID IS D_1000245054.                                   
 200                                                                      
 200 EXPERIMENTAL DETAILS                                                 
 200  EXPERIMENT TYPE                : X-RAY DIFFRACTION                  
 200  DATE OF DATA COLLECTION        : 13-APR-12                          
 200  TEMPERATURE           (KELVIN) : 100                                
 200  PH                             : NULL                               
 200  NUMBER OF CRYSTALS USED        : 1                                  
 200                                                                      
 200  SYNCHROTRON              (Y/N) : Y                                  
 200  RADIATION SOURCE               : APS                                
 200  BEAMLINE                       : 17-ID                              
 200  X-RAY GENERATOR MODEL          : NULL                               
 200  MONOCHROMATIC OR LAUE    (M/L) : M                                  
 200  WAVELENGTH OR RANGE        (A) : 1.0                                
 200  MONOCHROMATOR                  : NULL                               
 200  OPTICS                         : NULL                               
 200                                                                      
 200  DETECTOR TYPE                  : PIXEL                              
 200  DETECTOR MANUFACTURER          : DECTRIS PILATUS 6M                 
 200  INTENSITY-INTEGRATION SOFTWARE : XDS                                
 200  DATA SCALING SOFTWARE          : SCALA 3.3.20                       
 200                                                                      
 200  NUMBER OF UNIQUE REFLECTIONS   : 142039                             
 200  RESOLUTION RANGE HIGH      (A) : 1.090                              
 200  RESOLUTION RANGE LOW       (A) : 105.129                            
 200  REJECTION CRITERIA  (SIGMA(I)) : NULL                               
 200                                                                      
 200 OVERALL.                                                             
 200  COMPLETENESS FOR RANGE     (%) : 100.0                              
 200  DATA REDUNDANCY                : 6.300                              
 200  R MERGE                    (I) : NULL                               
 200  R SYM                      (I) : 0.06400                            
 200  <I/SIGMA(I)> FOR THE DATA SET  : 17.6000                            
 200                                                                      
 200 IN THE HIGHEST RESOLUTION SHELL.                                     
 200  HIGHEST RESOLUTION SHELL, RANGE HIGH (A) : 1.09                     
 200  HIGHEST RESOLUTION SHELL, RANGE LOW  (A) : 1.12                     
 200  COMPLETENESS FOR SHELL     (%) : 99.8                               
 200  DATA REDUNDANCY IN SHELL       : 5.90                               
 200  R MERGE FOR SHELL          (I) : 0.50800                            
 200  R SYM FOR SHELL            (I) : 0.50800                            
 200  <I/SIGMA(I)> FOR SHELL         : 1.500                              
 200                                                                      
 200 DIFFRACTION PROTOCOL: SINGLE WAVELENGTH                              
 200 METHOD USED TO DETERMINE THE STRUCTURE: FOURIER SYNTHESIS            
 200 SOFTWARE USED: REFMAC                                                
 200 STARTING MODEL: NULL                                                 
 200                                                                      
 200 REMARK: NULL                                                         
 280                                                                      
 280 CRYSTAL                                                              
 280 SOLVENT CONTENT, VS   (%): 40.66                                     
 280 MATTHEWS COEFFICIENT, VM (ANGSTROMS**3/DA): 2.07                     
 280                                                                      
 280 CRYSTALLIZATION CONDITIONS: 18% PEG 3350, 10% ISOPROPANOL, 100 MM    
 280  IMIDAZOLE, PH=6.5; SEEDING, VAPOR DIFFUSION, HANGING DROP,          
 280  TEMPERATURE 298K                                                    
 290                                                                      
 290 CRYSTALLOGRAPHIC SYMMETRY                                            
 290 SYMMETRY OPERATORS FOR SPACE GROUP: P 21 21 21                       
 290                                                                      
 290      SYMOP   SYMMETRY                                                
 290     NNNMMM   OPERATOR                                                
 290       1555   X,Y,Z                                                   
 290       2555   -X+1/2,-Y,Z+1/2                                         
 290       3555   -X,Y+1/2,-Z+1/2                                         
 290       4555   X+1/2,-Y+1/2,-Z                                         
 290                                                                      
 290     WHERE NNN -> OPERATOR NUMBER                                     
 290           MMM -> TRANSLATION VECTOR                                  
 290                                                                      
 290 CRYSTALLOGRAPHIC SYMMETRY TRANSFORMATIONS                            
 290 THE FOLLOWING TRANSFORMATIONS OPERATE ON THE ATOM/HETATM             
 290 RECORDS IN THIS ENTRY TO PRODUCE CRYSTALLOGRAPHICALLY                
 290 RELATED MOLECULES.                                                   
 290   SMTRY1   1  1.000000  0.000000  0.000000        0.00000            
 290   SMTRY2   1  0.000000  1.000000  0.000000        0.00000            
 290   SMTRY3   1  0.000000  0.000000  1.000000        0.00000            
 290   SMTRY1   2 -1.000000  0.000000  0.000000       22.49650            
 290   SMTRY2   2  0.000000 -1.000000  0.000000        0.00000            
 290   SMTRY3   2  0.000000  0.000000  1.000000       52.56450            
 290   SMTRY1   3 -1.000000  0.000000  0.000000        0.00000            
 290   SMTRY2   3  0.000000  1.000000  0.000000       35.95600            
 290   SMTRY3   3  0.000000  0.000000 -1.000000       52.56450            
 290   SMTRY1   4  1.000000  0.000000  0.000000       22.49650            
 290   SMTRY2   4  0.000000 -1.000000  0.000000       35.95600            
 290   SMTRY3   4  0.000000  0.000000 -1.000000        0.00000            
 290                                                                      
 290 REMARK: NULL                                                         
 300                                                                      
 300 BIOMOLECULE: 1                                                       
 300 SEE REMARK 350 FOR THE AUTHOR PROVIDED AND/OR PROGRAM                
 300 GENERATED ASSEMBLY INFORMATION FOR THE STRUCTURE IN                  
 300 THIS ENTRY. THE REMARK MAY ALSO PROVIDE INFORMATION ON               
 300 BURIED SURFACE AREA.                                                 
 350                                                                      
 350 COORDINATES FOR A COMPLETE MULTIMER REPRESENTING THE KNOWN           
 350 BIOLOGICALLY SIGNIFICANT OLIGOMERIZATION STATE OF THE                
 350 MOLECULE CAN BE GENERATED BY APPLYING BIOMT TRANSFORMATIONS          
 350 GIVEN BELOW.  BOTH NON-CRYSTALLOGRAPHIC AND                          
 350 CRYSTALLOGRAPHIC OPERATIONS ARE GIVEN.                               
 350                                                                      
 350 BIOMOLECULE: 1                                                       
 350 AUTHOR DETERMINED BIOLOGICAL UNIT: MONOMERIC                         
 350 SOFTWARE DETERMINED QUATERNARY STRUCTURE: MONOMERIC                  
 350 SOFTWARE USED: PISA                                                  
 350 APPLY THE FOLLOWING TO CHAINS: A                                     
 350   BIOMT1   1  1.000000  0.000000  0.000000        0.00000            
 350   BIOMT2   1  0.000000  1.000000  0.000000        0.00000            
 350   BIOMT3   1  0.000000  0.000000  1.000000        0.00000            
 465                                                                      
 465 MISSING RESIDUES                                                     
 465 THE FOLLOWING RESIDUES WERE NOT LOCATED IN THE                       
 465 EXPERIMENT. (M=MODEL NUMBER; RES=RESIDUE NAME; C=CHAIN               
 465 IDENTIFIER; SSSEQ=SEQUENCE NUMBER; I=INSERTION CODE.)                
 465                                                                      
 465   M RES C SSSEQI                                                     
 465     GLY A    23                                                      
 465     SER A    24                                                      
 465     LYS A    25                                                      
 465     LEU A    26                                                      
 465     GLN A   390                                                      
 465     GLY A   391                                                      
 465     LYS A   392                                                      
 465     VAL A   393                                                      
 465     PRO A   394                                                      
 465     LEU A   395                                                      
 465     LYS A   396                                                      
 465     ALA A   397                                                      
 470                                                                      
 470 MISSING ATOM                                                         
 470 THE FOLLOWING RESIDUES HAVE MISSING ATOMS (M=MODEL NUMBER;           
 470 RES=RESIDUE NAME; C=CHAIN IDENTIFIER; SSEQ=SEQUENCE NUMBER;          
 470 I=INSERTION CODE):                                                   
 470   M RES CSSEQI  ATOMS                                                
 470     ARG A 163    CZ   NH1  NH2                                       
 470     LEU A 193    O                                                   
 470     LYS A 232    CG   CD   CE   NZ                                   
 470     ARG A 324    CG   CD   NE   CZ   NH1  NH2                        
 470     GLU A 388    CG   CD   OE1  OE2                                  
 470     GLN A 389    CG   CD   OE1  NE2                                  
 500                                                                      
 500 GEOMETRY AND STEREOCHEMISTRY                                         
 500 SUBTOPIC: CLOSE CONTACTS IN SAME ASYMMETRIC UNIT                     
 500                                                                      
 500 THE FOLLOWING ATOMS ARE IN CLOSE CONTACT.                            
 500                                                                      
 500  ATM1  RES C  SSEQI   ATM2  RES C  SSEQI           DISTANCE          
 500   O    HOH A   717     O    HOH A   895              1.61            
 500   O    HOH A   895     O    HOH A  1006              1.97            
 500   O    HOH A   950     O    HOH A  1047              2.18            
 500   O    HOH A   584     O    HOH A   932              2.19            
 500                                                                      
 500 REMARK: NULL                                                         
 500                                                                      
 500 GEOMETRY AND STEREOCHEMISTRY                                         
 500 SUBTOPIC: CLOSE CONTACTS                                             
 500                                                                      
 500 THE FOLLOWING ATOMS THAT ARE RELATED BY CRYSTALLOGRAPHIC             
 500 SYMMETRY ARE IN CLOSE CONTACT.  AN ATOM LOCATED WITHIN 0.15          
 500 ANGSTROMS OF A SYMMETRY RELATED ATOM IS ASSUMED TO BE ON A           
 500 SPECIAL POSITION AND IS, THEREFORE, LISTED IN REMARK 375             
 500 INSTEAD OF REMARK 500.  ATOMS WITH NON-BLANK ALTERNATE               
 500 LOCATION INDICATORS ARE NOT INCLUDED IN THE CALCULATIONS.            
 500                                                                      
 500 DISTANCE CUTOFF:                                                     
 500 2.2 ANGSTROMS FOR CONTACTS NOT INVOLVING HYDROGEN ATOMS              
 500 1.6 ANGSTROMS FOR CONTACTS INVOLVING HYDROGEN ATOMS                  
 500                                                                      
 500  ATM1  RES C  SSEQI   ATM2  RES C  SSEQI  SSYMOP   DISTANCE          
 500   O    HOH A   819     O    HOH A  1019     2554     2.19            
 500                                                                      
 500 REMARK: NULL                                                         
 500                                                                      
 500 GEOMETRY AND STEREOCHEMISTRY                                         
 500 SUBTOPIC: COVALENT BOND ANGLES                                       
 500                                                                      
 500 THE STEREOCHEMICAL PARAMETERS OF THE FOLLOWING RESIDUES              
 500 HAVE VALUES WHICH DEVIATE FROM EXPECTED VALUES BY MORE               
 500 THAN 6*RMSD (M=MODEL NUMBER; RES=RESIDUE NAME; C=CHAIN               
 500 IDENTIFIER; SSEQ=SEQUENCE NUMBER; I=INSERTION CODE).                 
 500                                                                      
 500 STANDARD TABLE:                                                      
 500 FORMAT: (10X,I3,1X,A3,1X,A1,I4,A1,3(1X,A4,2X),12X,F5.1)              
 500                                                                      
 500 EXPECTED VALUES PROTEIN: ENGH AND HUBER, 1999                        
 500 EXPECTED VALUES NUCLEIC ACID: CLOWNEY ET AL 1996                     
 500                                                                      
 500  M RES CSSEQI ATM1   ATM2   ATM3                                     
 500    ARG A 260   NE  -  CZ  -  NH2 ANGL. DEV. =   4.7 DEGREES          
 500                                                                      
 500 REMARK: NULL                                                         
 500                                                                      
 500 GEOMETRY AND STEREOCHEMISTRY                                         
 500 SUBTOPIC: TORSION ANGLES                                             
 500                                                                      
 500 TORSION ANGLES OUTSIDE THE EXPECTED RAMACHANDRAN REGIONS:            
 500 (M=MODEL NUMBER; RES=RESIDUE NAME; C=CHAIN IDENTIFIER;               
 500 SSEQ=SEQUENCE NUMBER; I=INSERTION CODE).                             
 500                                                                      
 500 STANDARD TABLE:                                                      
 500 FORMAT:(10X,I3,1X,A3,1X,A1,I4,A1,4X,F7.2,3X,F7.2)                    
 500                                                                      
 500 EXPECTED VALUES: GJ KLEYWEGT AND TA JONES (1996). PHI/PSI-           
 500 CHOLOGY: RAMACHANDRAN REVISITED. STRUCTURE 4, 1395 - 1400            
 500                                                                      
 500  M RES CSSEQI        PSI       PHI                                   
 500    TYR A 249       22.78   -158.53                                   
 500                                                                      
 500 REMARK: NULL                                                         
 525                                                                      
 525 SOLVENT                                                              
 525                                                                      
 525 THE SOLVENT MOLECULES HAVE CHAIN IDENTIFIERS THAT                    
 525 INDICATE THE POLYMER CHAIN WITH WHICH THEY ARE MOST                  
 525 CLOSELY ASSOCIATED. THE REMARK LISTS ALL THE SOLVENT                 
 525 MOLECULES WHICH ARE MORE THAN 5A AWAY FROM THE                       
 525 NEAREST POLYMER CHAIN (M = MODEL NUMBER;                             
 525 RES=RESIDUE NAME; C=CHAIN IDENTIFIER; SSEQ=SEQUENCE                  
 525 NUMBER; I=INSERTION CODE):                                           
 525                                                                      
 525  M RES CSSEQI                                                        
 525    HOH A1057        DISTANCE =  5.81 ANGSTROMS                       
 525    HOH A1058        DISTANCE =  5.82 ANGSTROMS                       
 525    HOH A1059        DISTANCE =  5.90 ANGSTROMS                       
 525    HOH A1060        DISTANCE =  6.27 ANGSTROMS                       
 525    HOH A1061        DISTANCE =  6.34 ANGSTROMS                       
 525    HOH A1062        DISTANCE =  6.89 ANGSTROMS                       
 525    HOH A1063        DISTANCE =  6.91 ANGSTROMS                       
 525    HOH A1064        DISTANCE =  7.13 ANGSTROMS                       
 800                                                                      
 800 SITE                                                                 
 800 SITE_IDENTIFIER: AC1                                                 
 800 EVIDENCE_CODE: SOFTWARE                                              
 800 SITE_DESCRIPTION: binding site for residue PBC A 401                 
 800                                                                      
 800 SITE_IDENTIFIER: AC2                                                 
 800 EVIDENCE_CODE: SOFTWARE                                              
 800 SITE_DESCRIPTION: binding site for residue CL A 402                  

>  <DBREF>
 6UQU A   27   397  UNP    Q541D8   Q541D8_PSEAI    27    397             

>  <SEQADV>
 6UQU GLY A   23  UNP  Q541D8              EXPRESSION TAG                 
 6UQU SER A   24  UNP  Q541D8              EXPRESSION TAG                 
 6UQU LYS A   25  UNP  Q541D8              EXPRESSION TAG                 
 6UQU LEU A   26  UNP  Q541D8              EXPRESSION TAG                 
 6UQU ALA A  397  UNP  Q541D8    ARG   397 ENGINEERED MUTATION            

>  <SEQRES>
   1 A  375  GLY SER LYS LEU GLY GLU ALA PRO ALA ASP ARG LEU LYS          
   2 A  375  ALA LEU VAL ASP ALA ALA VAL GLN PRO VAL MET LYS ALA          
   3 A  375  ASN ASP ILE PRO GLY LEU ALA VAL ALA ILE SER LEU LYS          
   4 A  375  GLY GLU PRO HIS TYR PHE SER TYR GLY LEU ALA SER LYS          
   5 A  375  GLU ASP GLY ARG ARG VAL THR PRO GLU THR LEU PHE GLU          
   6 A  375  ILE GLY SER VAL SER LYS THR PHE THR ALA THR LEU ALA          
   7 A  375  GLY TYR ALA LEU THR GLN ASP LYS MET ARG LEU ASP ASP          
   8 A  375  ARG ALA SER GLN HIS TRP PRO ALA LEU GLN GLY SER ARG          
   9 A  375  PHE ASP GLY ILE SER LEU LEU ASP LEU ALA THR TYR THR          
  10 A  375  ALA GLY GLY LEU PRO LEU GLN PHE PRO ASP SER VAL GLN          
  11 A  375  LYS ASP GLN ALA GLN ILE ARG ASP TYR TYR ARG GLN TRP          
  12 A  375  GLN PRO THR TYR ALA PRO GLY SER GLN ARG LEU TYR SER          
  13 A  375  ASN PRO SER ILE GLY LEU PHE GLY TYR LEU ALA ALA ARG          
  14 A  375  SER LEU GLY GLN PRO PHE GLU ARG LEU MET GLU GLN GLN          
  15 A  375  VAL PHE PRO ALA LEU GLY LEU GLU GLN THR HIS LEU ASP          
  16 A  375  VAL PRO GLU ALA ALA LEU ALA GLN TYR ALA GLN GLY TYR          
  17 A  375  GLY LYS ASP ASP ARG PRO LEU ARG VAL GLY PRO GLY PRO          
  18 A  375  LEU ASP ALA GLU GLY TYR GLY VAL LYS THR SER ALA ALA          
  19 A  375  ASP LEU LEU ARG PHE VAL ASP ALA ASN LEU HIS PRO GLU          
  20 A  375  ARG LEU ASP ARG PRO TRP ALA GLN ALA LEU ASP ALA THR          
  21 A  375  HIS ARG GLY TYR TYR LYS VAL GLY ASP MET THR GLN GLY          
  22 A  375  LEU GLY TRP GLU ALA TYR ASP TRP PRO ILE SER LEU LYS          
  23 A  375  ARG LEU GLN ALA GLY ASN SER THR PRO MET ALA LEU GLN          
  24 A  375  PRO HIS ARG ILE ALA ARG LEU PRO ALA PRO GLN ALA LEU          
  25 A  375  GLU GLY GLN ARG LEU LEU ASN LYS THR GLY SER THR ASN          
  26 A  375  GLY PHE GLY ALA TYR VAL ALA PHE VAL PRO GLY ARG ASP          
  27 A  375  LEU GLY LEU VAL ILE LEU ALA ASN ARG ASN TYR PRO ASN          
  28 A  375  ALA GLU ARG VAL LYS ILE ALA TYR ALA ILE LEU SER GLY          
  29 A  375  LEU GLU GLN GLN GLY LYS VAL PRO LEU LYS ALA                  

>  <HET>
 PBC  A 401       9                                                       
  CL  A 402       1                                                       

>  <HETNAM>
     PBC PHENYL BORONIC ACID                                              
      CL CHLORIDE ION                                                     

>  <FORMUL>
   2  PBC    C6 H7 B O2                                                   
   3   CL    CL 1-                                                        
   4  HOH   *564(H2 O)                                                    

>  <HELIX>
   1 AA1 GLU A   28  ASN A   49  1                                  22    
   2 AA2 VAL A   91  GLN A  106  1                                  16    
   3 AA3 ARG A  114  GLN A  123  5                                  10    
   4 AA4 SER A  125  ILE A  130  5                                   6    
   5 AA5 SER A  131  THR A  137  1                                   7    
   6 AA6 ASP A  154  TRP A  165  1                                  12    
   7 AA7 SER A  178  LEU A  193  1                                  16    
   8 AA8 PRO A  196  GLN A  204  1                                   9    
   9 AA9 GLN A  204  LEU A  209  1                                   6    
  10 AB1 PRO A  219  TYR A  226  5                                   8    
  11 AB2 GLY A  231  ARG A  235  5                                   5    
  12 AB3 LEU A  244  GLY A  250  1                                   7    
  13 AB4 ALA A  255  HIS A  267  1                                  13    
  14 AB5 PRO A  268  LEU A  271  5                                   4    
  15 AB6 ASP A  272  ALA A  281  1                                  10    
  16 AB7 SER A  306  ASN A  314  1                                   9    
  17 AB8 SER A  315  GLN A  321  1                                   7    
  18 AB9 PRO A  357  ARG A  359  5                                   3    
  19 AC1 PRO A  372  GLN A  389  1                                  18    

>  <SHEET>
   1 AA110 ARG A  78  ARG A  79  0                                        
   2 AA110 GLU A  63  SER A  73 -1  N  ALA A  72   O  ARG A  78           
   3 AA110 GLY A  53  LEU A  60 -1  N  VAL A  56   O  PHE A  67           
   4 AA110 LEU A 361  ALA A 367 -1  O  LEU A 366   N  ALA A  55           
   5 AA110 PHE A 349  VAL A 356 -1  N  VAL A 356   O  LEU A 361           
   6 AA110 ARG A 338  THR A 346 -1  N  GLY A 344   O  ALA A 351           
   7 AA110 GLU A 299  ASP A 302 -1  N  GLU A 299   O  ASN A 341           
   8 AA110 MET A 292  GLN A 294 -1  N  THR A 293   O  ALA A 300           
   9 AA110 ARG A 284  VAL A 289 -1  N  TYR A 286   O  GLN A 294           
  10 AA110 ALA A 326  ALA A 333 -1  O  GLN A 332   N  GLY A 285           
   1 AA2 3 LEU A  85  GLU A  87  0                                        
   2 AA2 3 LYS A 252  SER A 254 -1  O  THR A 253   N  PHE A  86           
   3 AA2 3 THR A 214  HIS A 215 -1  N  HIS A 215   O  LYS A 252           
   1 AA3 2 GLN A 174  ARG A 175  0                                        
   2 AA3 2 HIS A 323  ARG A 324 -1  O  HIS A 323   N  ARG A 175           

>  <LINK>
       OG  SER A  90                 B   PBC A 401     1555   1555  1.48  

>  <CISPEP>
   1 TRP A  303    PRO A  304          0         7.70                     

>  <SITE>
   1 AC1  9 SER A  90  LEU A 145  TYR A 177  ASN A 179                    
   2 AC1  9 TYR A 249  GLY A 344  SER A 345  HOH A 660                    
   3 AC1  9 HOH A 808                                                     
   1 AC2  3 GLN A 146  PHE A 147  ASN A 179                               

>  <ORIGX1>
      1.000000  0.000000  0.000000        0.00000                         

>  <ORIGX2>
      0.000000  1.000000  0.000000        0.00000                         

>  <ORIGX3>
      0.000000  0.000000  1.000000        0.00000                         

>  <SCALE1>
      0.022226  0.000000  0.000000        0.00000                         

>  <SCALE2>
      0.000000  0.013906  0.000000        0.00000                         

>  <SCALE3>
      0.000000  0.000000  0.009512        0.00000                         

>  <ANISOU>
  485  N   SER A  90      553    584    455     13    -66     43       N  
  486  CA  SER A  90      623    558    496    -19    -29     40       C  
  487  C   SER A  90      504    532    465    -20      4     83       C  
  488  O   SER A  90      585    582    523    -46     35    127       O  
  489  CB  SER A  90      660    671    565     40    -37     31       C  
  490  OG  SER A  90      774    699    683    -25    -18     19       O  
 2842  B   PBC A 401      913    624    663    -64     32     32       B  
 2843  O1  PBC A 401      933    841    947     49     26    118       O  
 2844  O2  PBC A 401     1046    720    668     -4     29     59       O  
 2845  CG1 PBC A 401     1321   1260   1317   -100    -48   -297       C  
 2846  CD1 PBC A 401     1319   1171   1200    -78    -54   -135       C  
 2847  CG2 PBC A 401     1180   1039   1344   -105     26   -193       C  
 2848  CB2 PBC A 401     1031    967   1166   -109    -39    -22       C  
 2849  CA  PBC A 401     1025    729    820    -55    -53    -40       C  
 2850  CB1 PBC A 401     1301   1159    983    -80     59   -224       C  

>  <MASTER>
      366    0    2   19   15    0    4    6 3364    1   10   29          

$$$$
