start_structures/Ligand_Substrate/Ligand_Complex_Stripped/PKY_6TZG.pdb
 OpenBabel08222315203D

 28 29  0  0  1  0  0  0  0  0999 V2000
   29.6870   -9.5100  -37.9330 N   0  0  0  0  0  0  0  0  0  0  0  0
   29.9140  -10.9760  -37.9940 C   0  0  2  0  0  0  0  0  0  0  0  0
   31.3940  -11.3240  -38.2090 C   0  0  0  0  0  0  0  0  0  0  0  0
   31.7480  -12.4860  -37.9820 O   0  0  0  0  0  0  0  0  0  0  0  0
   29.0570  -11.6120  -39.0460 C   0  0  0  0  0  0  0  0  0  0  0  0
   27.7180  -11.7020  -38.5840 O   0  0  0  0  0  0  0  0  0  0  0  0
   22.5380   -5.8390  -33.1110 O   0  0  0  0  0  0  0  0  0  0  0  0
   22.4840   -5.0340  -34.0320 C   0  0  0  0  0  0  0  0  0  0  0  0
   22.3590   -3.6550  -33.6980 N   0  0  0  0  0  0  0  0  0  0  0  0
   22.5060   -5.5390  -35.4650 C   0  0  0  0  0  0  0  0  0  0  0  0
   23.1050   -6.7730  -35.7720 C   0  0  0  0  0  0  0  0  0  0  0  0
   21.8870   -4.8340  -36.5010 C   0  0  0  0  0  0  0  0  0  0  0  0
   21.8890   -5.3250  -37.8160 C   0  0  0  0  0  0  0  0  0  0  0  0
   22.4960   -6.5410  -38.1290 C   0  0  0  0  0  0  0  0  0  0  0  0
   23.1050   -7.2710  -37.0970 C   0  0  0  0  0  0  0  0  0  0  0  0
   23.7590   -8.5860  -37.3830 C   0  0  0  0  0  0  0  0  0  0  0  0
   24.0620   -9.4770  -36.4010 N   0  0  0  0  0  0  0  0  0  0  0  0
   24.6640  -10.5920  -36.9960 N   0  0  0  0  0  0  0  0  0  0  0  0
   24.1420   -9.1200  -38.6240 C   0  0  0  0  0  0  0  0  0  0  0  0
   24.6880  -10.3160  -38.3570 N   0  0  0  0  0  0  0  0  0  0  0  0
   25.2740  -11.4000  -39.1310 C   0  0  0  0  0  0  0  0  0  0  0  0
   26.8020  -11.0880  -39.5110 B   0  0  1  0  0  0  0  0  0  0  0  0
   27.0730   -9.5670  -39.4590 O   0  0  0  0  0  0  0  0  0  0  0  0
   27.0440  -11.7240  -40.7830 O   0  0  0  0  0  0  0  0  0  0  0  0
   26.6060  -11.1690  -42.2170 P   0  0  0  0  0  0  0  0  0  0  0  0
   27.7300  -10.4330  -42.9200 O   0  0  0  0  0  0  0  0  0  0  0  0
   26.2380  -12.3810  -43.0490 O   0  0  0  0  0  0  0  0  0  0  0  0
   25.4190  -10.2350  -42.0700 O   0  0  0  0  0  0  0  0  0  0  0  0
  2  1  1  6  0  0  0
  3  2  1  0  0  0  0
  3  4  2  0  0  0  0
  5  6  1  0  0  0  0
  5  2  1  0  0  0  0
  8  9  1  0  0  0  0
  8  7  2  0  0  0  0
 10  8  1  0  0  0  0
 11 10  1  0  0  0  0
 12 10  2  0  0  0  0
 13 12  1  0  0  0  0
 14 13  2  0  0  0  0
 14 15  1  0  0  0  0
 15 11  2  0  0  0  0
 16 15  1  0  0  0  0
 16 17  1  0  0  0  0
 18 17  2  0  0  0  0
 19 20  1  0  0  0  0
 19 16  2  0  0  0  0
 20 18  1  0  0  0  0
 21 20  1  0  0  0  0
 22 23  1  6  0  0  0
 22 21  1  0  0  0  0
 22  6  1  0  0  0  0
 24 22  1  0  0  0  0
 25 28  1  0  0  0  0
 25 24  1  0  0  0  0
 26 25  1  0  0  0  0
 27 25  2  0  0  0  0
M  END
>  <HEADER>
    HYDROLASE                               12-AUG-19   6TZG              

>  <TITLE>
    ADC-7 IN COMPLEX WITH BORONIC ACID TRANSITION STATE INHIBITOR S17083  

>  <COMPND>
    MOL_ID: 1;                                                            
   2 MOLECULE: BETA-LACTAMASE;                                            
   3 CHAIN: A, B, C, D;                                                   
   4 EC: 3.5.2.6;                                                         
   5 ENGINEERED: YES                                                      

>  <SOURCE>
    MOL_ID: 1;                                                            
   2 ORGANISM_SCIENTIFIC: ACINETOBACTER BAUMANNII;                        
   3 ORGANISM_TAXID: 470;                                                 
   4 EXPRESSION_SYSTEM: ESCHERICHIA COLI BL21(DE3);                       
   5 EXPRESSION_SYSTEM_TAXID: 469008;                                     
   6 EXPRESSION_SYSTEM_VECTOR_TYPE: PLASMID;                              
   7 EXPRESSION_SYSTEM_PLASMID: PET28A                                    

>  <KEYWDS>
    INHIBITOR, BETA-LACTAMASE, BATSI, ADC-7, HYDROLASE                    

>  <EXPDTA>
    X-RAY DIFFRACTION                                                     

>  <AUTHOR>
    E.R.FISH,R.A.POWERS,B.J.WALLAR                                        

>  <REVDAT>
   3   22-JUL-20 6TZG    1       JRNL                                     
   2   08-JUL-20 6TZG    1       JRNL                                     
   1   24-JUN-20 6TZG    0                                                

>  <JRNL>
      AUTH   E.CASELLI,F.FINI,M.L.INTROVIGNE,M.STUCCHI,M.A.TARACILA,      
      AUTH 2 E.R.FISH,K.A.SMOLEN,P.N.RATHER,R.A.POWERS,B.J.WALLAR,        
      AUTH 3 R.A.BONOMO,F.PRATI                                           
      TITL   1,2,3-TRIAZOLYLMETHANEBORONATE: A STRUCTURE ACTIVITY         
      TITL 2 RELATIONSHIP STUDY OF A CLASS OF BETA-LACTAMASE INHIBITORS   
      TITL 3 AGAINSTACINETOBACTER BAUMANNIICEPHALOSPORINASE.              
      REF    ACS INFECT DIS.               V.   6  1965 2020              
      REFN                   ESSN 2373-8227                               
      PMID   32502340                                                     
      DOI    10.1021/ACSINFECDIS.0C00254                                  

>  <REMARK>
   2                                                                      
   2 RESOLUTION.    1.82 ANGSTROMS.                                       
   3                                                                      
   3 REFINEMENT.                                                          
   3   PROGRAM     : REFMAC 5.8.0253                                      
   3   AUTHORS     : MURSHUDOV,SKUBAK,LEBEDEV,PANNU,STEINER,              
   3               : NICHOLLS,WINN,LONG,VAGIN                             
   3                                                                      
   3    REFINEMENT TARGET : NULL                                          
   3                                                                      
   3  DATA USED IN REFINEMENT.                                            
   3   RESOLUTION RANGE HIGH (ANGSTROMS) : 1.82                           
   3   RESOLUTION RANGE LOW  (ANGSTROMS) : 97.55                          
   3   DATA CUTOFF            (SIGMA(F)) : 0.000                          
   3   COMPLETENESS FOR RANGE        (%) : 98.3                           
   3   NUMBER OF REFLECTIONS             : 117016                         
   3                                                                      
   3  FIT TO DATA USED IN REFINEMENT.                                     
   3   CROSS-VALIDATION METHOD          : THROUGHOUT                      
   3   FREE R VALUE TEST SET SELECTION  : RANDOM                          
   3   R VALUE     (WORKING + TEST SET) : 0.222                           
   3   R VALUE            (WORKING SET) : 0.220                           
   3   FREE R VALUE                     : 0.256                           
   3   FREE R VALUE TEST SET SIZE   (%) : 4.900                           
   3   FREE R VALUE TEST SET COUNT      : 5965                            
   3                                                                      
   3  FIT IN THE HIGHEST RESOLUTION BIN.                                  
   3   TOTAL NUMBER OF BINS USED           : NULL                         
   3   BIN RESOLUTION RANGE HIGH       (A) : 1.82                         
   3   BIN RESOLUTION RANGE LOW        (A) : 1.86                         
   3   REFLECTION IN BIN     (WORKING SET) : 8646                         
   3   BIN COMPLETENESS (WORKING+TEST) (%) : 98.54                        
   3   BIN R VALUE           (WORKING SET) : 0.3330                       
   3   BIN FREE R VALUE SET COUNT          : 423                          
   3   BIN FREE R VALUE                    : 0.3470                       
   3                                                                      
   3  NUMBER OF NON-HYDROGEN ATOMS USED IN REFINEMENT.                    
   3   PROTEIN ATOMS            : 11071                                   
   3   NUCLEIC ACID ATOMS       : 0                                       
   3   HETEROGEN ATOMS          : 88                                      
   3   SOLVENT ATOMS            : 488                                     
   3                                                                      
   3  B VALUES.                                                           
   3   FROM WILSON PLOT           (A**2) : NULL                           
   3   MEAN B VALUE      (OVERALL, A**2) : 43.19                          
   3   OVERALL ANISOTROPIC B VALUE.                                       
   3    B11 (A**2) : 0.16000                                              
   3    B22 (A**2) : -4.23000                                             
   3    B33 (A**2) : 1.63000                                              
   3    B12 (A**2) : 0.00000                                              
   3    B13 (A**2) : 2.21000                                              
   3    B23 (A**2) : 0.00000                                              
   3                                                                      
   3  ESTIMATED OVERALL COORDINATE ERROR.                                 
   3   ESU BASED ON R VALUE                            (A): 0.166         
   3   ESU BASED ON FREE R VALUE                       (A): 0.150         
   3   ESU BASED ON MAXIMUM LIKELIHOOD                 (A): 0.157         
   3   ESU FOR B VALUES BASED ON MAXIMUM LIKELIHOOD (A**2): 5.599         
   3                                                                      
   3 CORRELATION COEFFICIENTS.                                            
   3   CORRELATION COEFFICIENT FO-FC      : 0.958                         
   3   CORRELATION COEFFICIENT FO-FC FREE : 0.944                         
   3                                                                      
   3  RMS DEVIATIONS FROM IDEAL VALUES        COUNT    RMS    WEIGHT      
   3   BOND LENGTHS REFINED ATOMS        (A): 11440 ; 0.005 ; 0.013       
   3   BOND LENGTHS OTHERS               (A): 10312 ; 0.001 ; 0.017       
   3   BOND ANGLES REFINED ATOMS   (DEGREES): 15585 ; 1.295 ; 1.665       
   3   BOND ANGLES OTHERS          (DEGREES): 24055 ; 1.213 ; 1.576       
   3   TORSION ANGLES, PERIOD 1    (DEGREES):  1420 ; 6.829 ; 5.000       
   3   TORSION ANGLES, PERIOD 2    (DEGREES):   520 ;38.730 ;24.942       
   3   TORSION ANGLES, PERIOD 3    (DEGREES):  1868 ;14.509 ;15.000       
   3   TORSION ANGLES, PERIOD 4    (DEGREES):    24 ;22.044 ;15.000       
   3   CHIRAL-CENTER RESTRAINTS       (A**3):  1499 ; 0.058 ; 0.200       
   3   GENERAL PLANES REFINED ATOMS      (A): 12730 ; 0.005 ; 0.020       
   3   GENERAL PLANES OTHERS             (A):  2186 ; 0.001 ; 0.020       
   3   NON-BONDED CONTACTS REFINED ATOMS (A):  NULL ;  NULL ;  NULL       
   3   NON-BONDED CONTACTS OTHERS        (A):  NULL ;  NULL ;  NULL       
   3   NON-BONDED TORSION REFINED ATOMS  (A):  NULL ;  NULL ;  NULL       
   3   NON-BONDED TORSION OTHERS         (A):  NULL ;  NULL ;  NULL       
   3   H-BOND (X...Y) REFINED ATOMS      (A):  NULL ;  NULL ;  NULL       
   3   H-BOND (X...Y) OTHERS             (A):  NULL ;  NULL ;  NULL       
   3   POTENTIAL METAL-ION REFINED ATOMS (A):  NULL ;  NULL ;  NULL       
   3   POTENTIAL METAL-ION OTHERS        (A):  NULL ;  NULL ;  NULL       
   3   SYMMETRY VDW REFINED ATOMS        (A):  NULL ;  NULL ;  NULL       
   3   SYMMETRY VDW OTHERS               (A):  NULL ;  NULL ;  NULL       
   3   SYMMETRY H-BOND REFINED ATOMS     (A):  NULL ;  NULL ;  NULL       
   3   SYMMETRY H-BOND OTHERS            (A):  NULL ;  NULL ;  NULL       
   3   SYMMETRY METAL-ION REFINED ATOMS  (A):  NULL ;  NULL ;  NULL       
   3   SYMMETRY METAL-ION OTHERS         (A):  NULL ;  NULL ;  NULL       
   3                                                                      
   3  ISOTROPIC THERMAL FACTOR RESTRAINTS.     COUNT   RMS    WEIGHT      
   3   MAIN-CHAIN BOND REFINED ATOMS  (A**2):  NULL ;  NULL ;  NULL       
   3   MAIN-CHAIN BOND OTHER ATOMS    (A**2):  NULL ;  NULL ;  NULL       
   3   MAIN-CHAIN ANGLE REFINED ATOMS (A**2):  NULL ;  NULL ;  NULL       
   3   MAIN-CHAIN ANGLE OTHER ATOMS   (A**2):  NULL ;  NULL ;  NULL       
   3   SIDE-CHAIN BOND REFINED ATOMS  (A**2):  NULL ;  NULL ;  NULL       
   3   SIDE-CHAIN BOND OTHER ATOMS    (A**2):  NULL ;  NULL ;  NULL       
   3   SIDE-CHAIN ANGLE REFINED ATOMS (A**2):  NULL ;  NULL ;  NULL       
   3   SIDE-CHAIN ANGLE OTHER ATOMS   (A**2):  NULL ;  NULL ;  NULL       
   3   LONG RANGE B REFINED ATOMS     (A**2):  NULL ;  NULL ;  NULL       
   3   LONG RANGE B OTHER ATOMS       (A**2):  NULL ;  NULL ;  NULL       
   3                                                                      
   3 ANISOTROPIC THERMAL FACTOR RESTRAINTS.    COUNT   RMS   WEIGHT       
   3   RIGID-BOND RESTRAINTS          (A**2):  NULL ;  NULL ;  NULL       
   3   SPHERICITY; FREE ATOMS         (A**2):  NULL ;  NULL ;  NULL       
   3   SPHERICITY; BONDED ATOMS       (A**2):  NULL ;  NULL ;  NULL       
   3                                                                      
   3  NCS RESTRAINTS STATISTICS                                           
   3   NCS TYPE: LOCAL                                                    
   3   NUMBER OF DIFFERENT NCS PAIRS  : 6                                 
   3  GROUP  CHAIN1    RANGE     CHAIN2     RANGE    COUNT RMS  WEIGHT    
   3    1     A     3    355       B     3    355   11248 0.080 0.050     
   3    2     A     5    357       C     5    357   11631 0.080 0.050     
   3    3     A     3    357       D     3    357   11441 0.070 0.050     
   3    4     B     5    355       C     5    355   11067 0.090 0.050     
   3    5     B     3    355       D     3    355   11165 0.070 0.050     
   3    6     C     5    357       D     5    357   11314 0.080 0.050     
   3                                                                      
   3  TLS DETAILS                                                         
   3   NUMBER OF TLS GROUPS  : NULL                                       
   3                                                                      
   3  BULK SOLVENT MODELLING.                                             
   3   METHOD USED : NULL                                                 
   3   PARAMETERS FOR MASK CALCULATION                                    
   3   VDW PROBE RADIUS   : 1.00                                          
   3   ION PROBE RADIUS   : 0.70                                          
   3   SHRINKAGE RADIUS   : 0.70                                          
   3                                                                      
   3  OTHER REFINEMENT REMARKS: HYDROGENS HAVE BEEN ADDED IN THE RIDING   
   3  POSITIONS U VALUES : REFINED INDIVIDUALLY                           
   4                                                                      
   4 6TZG COMPLIES WITH FORMAT V. 3.30, 13-JUL-11                         
 100                                                                      
 100 THIS ENTRY HAS BEEN PROCESSED BY RCSB ON 16-AUG-19.                  
 100 THE DEPOSITION ID IS D_1000243241.                                   
 200                                                                      
 200 EXPERIMENTAL DETAILS                                                 
 200  EXPERIMENT TYPE                : X-RAY DIFFRACTION                  
 200  DATE OF DATA COLLECTION        : 12-JUL-17                          
 200  TEMPERATURE           (KELVIN) : 100                                
 200  PH                             : 5.0                                
 200  NUMBER OF CRYSTALS USED        : 1                                  
 200                                                                      
 200  SYNCHROTRON              (Y/N) : Y                                  
 200  RADIATION SOURCE               : APS                                
 200  BEAMLINE                       : 21-ID-D                            
 200  X-RAY GENERATOR MODEL          : NULL                               
 200  MONOCHROMATIC OR LAUE    (M/L) : M                                  
 200  WAVELENGTH OR RANGE        (A) : 1.07818                            
 200  MONOCHROMATOR                  : NULL                               
 200  OPTICS                         : NULL                               
 200                                                                      
 200  DETECTOR TYPE                  : PIXEL                              
 200  DETECTOR MANUFACTURER          : DECTRIS EIGER X 9M                 
 200  INTENSITY-INTEGRATION SOFTWARE : XDS                                
 200  DATA SCALING SOFTWARE          : AIMLESS                            
 200                                                                      
 200  NUMBER OF UNIQUE REFLECTIONS   : 123054                             
 200  RESOLUTION RANGE HIGH      (A) : 1.816                              
 200  RESOLUTION RANGE LOW       (A) : 97.550                             
 200  REJECTION CRITERIA  (SIGMA(I)) : NULL                               
 200                                                                      
 200 OVERALL.                                                             
 200  COMPLETENESS FOR RANGE     (%) : 98.4                               
 200  DATA REDUNDANCY                : 3.800                              
 200  R MERGE                    (I) : 0.05400                            
 200  R SYM                      (I) : NULL                               
 200  <I/SIGMA(I)> FOR THE DATA SET  : 11.4000                            
 200                                                                      
 200 IN THE HIGHEST RESOLUTION SHELL.                                     
 200  HIGHEST RESOLUTION SHELL, RANGE HIGH (A) : 1.82                     
 200  HIGHEST RESOLUTION SHELL, RANGE LOW  (A) : 1.82                     
 200  COMPLETENESS FOR SHELL     (%) : 98.8                               
 200  DATA REDUNDANCY IN SHELL       : 4.00                               
 200  R MERGE FOR SHELL          (I) : 0.46600                            
 200  R SYM FOR SHELL            (I) : NULL                               
 200  <I/SIGMA(I)> FOR SHELL         : NULL                               
 200                                                                      
 200 DIFFRACTION PROTOCOL: SINGLE WAVELENGTH                              
 200 METHOD USED TO DETERMINE THE STRUCTURE: MOLECULAR REPLACEMENT        
 200 SOFTWARE USED: PHASER                                                
 200 STARTING MODEL: 4U0T                                                 
 200                                                                      
 200 REMARK: NULL                                                         
 280                                                                      
 280 CRYSTAL                                                              
 280 SOLVENT CONTENT, VS   (%): 42.93                                     
 280 MATTHEWS COEFFICIENT, VM (ANGSTROMS**3/DA): 2.16                     
 280                                                                      
 280 CRYSTALLIZATION CONDITIONS: ADC-7 (3MG/ML) IN 25% W/V POLYETHYLENE   
 280  GLYCOL (PEG) 1500, 0.1 M SUCCINATE/ PHOSPHATE/ GLYCINE, PH 5.0,     
 280  VAPOR DIFFUSION, HANGING DROP, TEMPERATURE 298K                     
 290                                                                      
 290 CRYSTALLOGRAPHIC SYMMETRY                                            
 290 SYMMETRY OPERATORS FOR SPACE GROUP: P 1 21 1                         
 290                                                                      
 290      SYMOP   SYMMETRY                                                
 290     NNNMMM   OPERATOR                                                
 290       1555   X,Y,Z                                                   
 290       2555   -X,Y+1/2,-Z                                             
 290                                                                      
 290     WHERE NNN -> OPERATOR NUMBER                                     
 290           MMM -> TRANSLATION VECTOR                                  
 290                                                                      
 290 CRYSTALLOGRAPHIC SYMMETRY TRANSFORMATIONS                            
 290 THE FOLLOWING TRANSFORMATIONS OPERATE ON THE ATOM/HETATM             
 290 RECORDS IN THIS ENTRY TO PRODUCE CRYSTALLOGRAPHICALLY                
 290 RELATED MOLECULES.                                                   
 290   SMTRY1   1  1.000000  0.000000  0.000000        0.00000            
 290   SMTRY2   1  0.000000  1.000000  0.000000        0.00000            
 290   SMTRY3   1  0.000000  0.000000  1.000000        0.00000            
 290   SMTRY1   2 -1.000000  0.000000  0.000000        0.00000            
 290   SMTRY2   2  0.000000  1.000000  0.000000       40.62750            
 290   SMTRY3   2  0.000000  0.000000 -1.000000        0.00000            
 290                                                                      
 290 REMARK: NULL                                                         
 300                                                                      
 300 BIOMOLECULE: 1, 2, 3, 4                                              
 300 SEE REMARK 350 FOR THE AUTHOR PROVIDED AND/OR PROGRAM                
 300 GENERATED ASSEMBLY INFORMATION FOR THE STRUCTURE IN                  
 300 THIS ENTRY. THE REMARK MAY ALSO PROVIDE INFORMATION ON               
 300 BURIED SURFACE AREA.                                                 
 350                                                                      
 350 COORDINATES FOR A COMPLETE MULTIMER REPRESENTING THE KNOWN           
 350 BIOLOGICALLY SIGNIFICANT OLIGOMERIZATION STATE OF THE                
 350 MOLECULE CAN BE GENERATED BY APPLYING BIOMT TRANSFORMATIONS          
 350 GIVEN BELOW.  BOTH NON-CRYSTALLOGRAPHIC AND                          
 350 CRYSTALLOGRAPHIC OPERATIONS ARE GIVEN.                               
 350                                                                      
 350 BIOMOLECULE: 1                                                       
 350 AUTHOR DETERMINED BIOLOGICAL UNIT: MONOMERIC                         
 350 SOFTWARE DETERMINED QUATERNARY STRUCTURE: MONOMERIC                  
 350 SOFTWARE USED: PISA                                                  
 350 APPLY THE FOLLOWING TO CHAINS: A                                     
 350   BIOMT1   1  1.000000  0.000000  0.000000        0.00000            
 350   BIOMT2   1  0.000000  1.000000  0.000000        0.00000            
 350   BIOMT3   1  0.000000  0.000000  1.000000        0.00000            
 350                                                                      
 350 BIOMOLECULE: 2                                                       
 350 AUTHOR DETERMINED BIOLOGICAL UNIT: MONOMERIC                         
 350 SOFTWARE DETERMINED QUATERNARY STRUCTURE: MONOMERIC                  
 350 SOFTWARE USED: PISA                                                  
 350 APPLY THE FOLLOWING TO CHAINS: B                                     
 350   BIOMT1   1  1.000000  0.000000  0.000000        0.00000            
 350   BIOMT2   1  0.000000  1.000000  0.000000        0.00000            
 350   BIOMT3   1  0.000000  0.000000  1.000000        0.00000            
 350                                                                      
 350 BIOMOLECULE: 3                                                       
 350 AUTHOR DETERMINED BIOLOGICAL UNIT: MONOMERIC                         
 350 SOFTWARE DETERMINED QUATERNARY STRUCTURE: MONOMERIC                  
 350 SOFTWARE USED: PISA                                                  
 350 APPLY THE FOLLOWING TO CHAINS: C                                     
 350   BIOMT1   1  1.000000  0.000000  0.000000        0.00000            
 350   BIOMT2   1  0.000000  1.000000  0.000000        0.00000            
 350   BIOMT3   1  0.000000  0.000000  1.000000        0.00000            
 350                                                                      
 350 BIOMOLECULE: 4                                                       
 350 AUTHOR DETERMINED BIOLOGICAL UNIT: MONOMERIC                         
 350 SOFTWARE DETERMINED QUATERNARY STRUCTURE: MONOMERIC                  
 350 SOFTWARE USED: PISA                                                  
 350 APPLY THE FOLLOWING TO CHAINS: D                                     
 350   BIOMT1   1  1.000000  0.000000  0.000000        0.00000            
 350   BIOMT2   1  0.000000  1.000000  0.000000        0.00000            
 350   BIOMT3   1  0.000000  0.000000  1.000000        0.00000            
 465                                                                      
 465 MISSING RESIDUES                                                     
 465 THE FOLLOWING RESIDUES WERE NOT LOCATED IN THE                       
 465 EXPERIMENT. (M=MODEL NUMBER; RES=RESIDUE NAME; C=CHAIN               
 465 IDENTIFIER; SSSEQ=SEQUENCE NUMBER; I=INSERTION CODE.)                
 465                                                                      
 465   M RES C SSSEQI                                                     
 465     MET A    -1                                                      
 465     ASP A     0                                                      
 465     LYS A   359                                                      
 465     MET B    -1                                                      
 465     ASP B     0                                                      
 465     ASN B     1                                                      
 465     THR B     2                                                      
 465     ILE B   357                                                      
 465     LYS B   358                                                      
 465     LYS B   359                                                      
 465     MET C    -1                                                      
 465     ASP C     0                                                      
 465     ASN C     1                                                      
 465     THR C     2                                                      
 465     PRO C     3                                                      
 465     LYS C     4                                                      
 465     LYS C   359                                                      
 465     MET D    -1                                                      
 465     ASP D     0                                                      
 465     ASN D     1                                                      
 465     THR D     2                                                      
 465     LYS D   359                                                      
 470                                                                      
 470 MISSING ATOM                                                         
 470 THE FOLLOWING RESIDUES HAVE MISSING ATOMS (M=MODEL NUMBER;           
 470 RES=RESIDUE NAME; C=CHAIN IDENTIFIER; SSEQ=SEQUENCE NUMBER;          
 470 I=INSERTION CODE):                                                   
 470   M RES CSSEQI  ATOMS                                                
 470     LYS A  52    CG   CD   CE   NZ                                   
 470     LYS A 193    CG   CD   CE   NZ                                   
 470     LYS A 243    CG   CD   CE   NZ                                   
 470     LYS A 303    CG   CD   CE   NZ                                   
 470     LYS B   4    CG   CD   CE   NZ                                   
 470     ASP B   5    CG   OD1  OD2                                       
 470     GLN B   6    CG   CD   OE1  NE2                                  
 470     GLU B   7    CG   CD   OE1  OE2                                  
 470     ILE B   8    CG1  CG2  CD1                                       
 470     LYS B   9    CG   CD   CE   NZ                                   
 470     LYS B  10    CG   CD   CE   NZ                                   
 470     GLN B  14    CG   CD   OE1  NE2                                  
 470     LYS B  17    CG   CD   CE   NZ                                   
 470     ASN B  35    CG   OD1  ND2                                       
 470     ASN B  36    CG   OD1  ND2                                       
 470     LYS B  37    CG   CD   CE   NZ                                   
 470     LYS B  78    CG   CD   CE   NZ                                   
 470     LYS B  80    CG   CD   CE   NZ                                   
 470     ASP B  87    CG   OD1  OD2                                       
 470     GLN B 103    CG   CD   OE1  NE2                                  
 470     GLU B 124    CG   CD   OE1  OE2                                  
 470     LYS B 193    CG   CD   CE   NZ                                   
 470     GLN B 205    CG   CD   OE1  NE2                                  
 470     ILE B 248    CG1  CG2  CD1                                       
 470     GLN B 249    CG   CD   OE1  NE2                                  
 470     TYR B 276    CG   CD1  CD2  CE1  CE2  CZ   OH                    
 470     ILE B 301    CG1  CG2  CD1                                       
 470     LYS B 303    CG   CD   CE   NZ                                   
 470     GLU B 304    CG   CD   OE1  OE2                                  
 470     PRO B 305    CG   CD                                             
 470     LYS B 308    CG   CD   CE   NZ                                   
 470     GLN C 129    CG   CD   OE1  NE2                                  
 470     LYS C 139    CG   CD   CE   NZ                                   
 470     LYS C 141    CG   CD   CE   NZ                                   
 470     ASN C 167    CG   OD1  ND2                                       
 470     LYS C 193    CG   CD   CE   NZ                                   
 470     GLN C 242    CG   CD   OE1  NE2                                  
 470     LYS C 328    CG   CD   CE   NZ                                   
 470     LYS D   4    CG   CD   CE   NZ                                   
 470     GLN D   6    CG   CD   OE1  NE2                                  
 470     GLU D   7    CG   CD   OE1  OE2                                  
 470     LYS D  10    CG   CD   CE   NZ                                   
 470     ASN D  36    CG   OD1  ND2                                       
 470     LYS D  37    CG   CD   CE   NZ                                   
 470     LYS D  80    CG   CD   CE   NZ                                   
 470     LYS D  82    CG   CD   CE   NZ                                   
 470     LYS D  94    CG   CD   CE   NZ                                   
 470     ILE D 101    CG1  CG2  CD1                                       
 470     GLN D 103    CG   CD   OE1  NE2                                  
 470     LEU D 107    CG   CD1  CD2                                       
 470     ASP D 123    CG   OD1  OD2                                       
 470     GLU D 124    CG   CD   OE1  OE2                                  
 470     GLN D 129    CG   CD   OE1  NE2                                  
 470     GLU D 146    CG   CD   OE1  OE2                                  
 470     LYS D 185    CG   CD   CE   NZ                                   
 470     LYS D 193    CG   CD   CE   NZ                                   
 470     GLU D 206    CG   CD   OE1  OE2                                  
 470     GLN D 257    CG   CD   OE1  NE2                                  
 470     GLN D 281    CG   CD   OE1  NE2                                  
 470     GLU D 289    CG   CD   OE1  OE2                                  
 470     LYS D 294    CG   CD   CE   NZ                                   
 470     LYS D 297    CG   CD   CE   NZ                                   
 470     VAL D 298    CG1  CG2                                            
 470     GLU D 304    CG   CD   OE1  OE2                                  
 470     LYS D 328    CG   CD   CE   NZ                                   
 470     LYS D 348    CG   CD   CE   NZ                                   
 500                                                                      
 500 GEOMETRY AND STEREOCHEMISTRY                                         
 500 SUBTOPIC: TORSION ANGLES                                             
 500                                                                      
 500 TORSION ANGLES OUTSIDE THE EXPECTED RAMACHANDRAN REGIONS:            
 500 (M=MODEL NUMBER; RES=RESIDUE NAME; C=CHAIN IDENTIFIER;               
 500 SSEQ=SEQUENCE NUMBER; I=INSERTION CODE).                             
 500                                                                      
 500 STANDARD TABLE:                                                      
 500 FORMAT:(10X,I3,1X,A3,1X,A1,I4,A1,4X,F7.2,3X,F7.2)                    
 500                                                                      
 500 EXPECTED VALUES: GJ KLEYWEGT AND TA JONES (1996). PHI/PSI-           
 500 CHOLOGY: RAMACHANDRAN REVISITED. STRUCTURE 4, 1395 - 1400            
 500                                                                      
 500  M RES CSSEQI        PSI       PHI                                   
 500    ASN A 116       52.52   -160.90                                   
 500    GLN A 126      -54.27   -135.08                                   
 500    LYS A 141      -81.13   -134.86                                   
 500    TYR A 222       22.10   -159.01                                   
 500    ASN A 263     -114.62     55.94                                   
 500    LYS B   4      -66.08     86.75                                   
 500    ASN B  35     -128.55     53.65                                   
 500    ASN B 116       51.84   -159.39                                   
 500    GLN B 126      -54.87   -134.81                                   
 500    LYS B 141      -81.06   -135.31                                   
 500    TYR B 222       21.83   -158.83                                   
 500    ASN B 263     -116.72     61.48                                   
 500    LYS B 303      111.08   -164.05                                   
 500    ASN B 355       42.69    -87.54                                   
 500    ASN C 116       52.39   -159.49                                   
 500    GLN C 126      -54.67   -134.95                                   
 500    LYS C 141      -81.85   -136.44                                   
 500    TYR C 222       22.32   -159.09                                   
 500    ASN C 263     -115.02     56.72                                   
 500    SER C 302      -70.32    -98.20                                   
 500    ASN D 116       52.44   -160.22                                   
 500    GLN D 126      -54.99   -134.88                                   
 500    LYS D 141      -80.88   -134.72                                   
 500    TYR D 222       22.23   -158.54                                   
 500    ASN D 263     -117.22     62.43                                   
 500    LYS D 303      109.93   -161.26                                   
 500                                                                      
 500 REMARK: NULL                                                         
 800                                                                      
 800 SITE                                                                 
 800 SITE_IDENTIFIER: AC1                                                 
 800 EVIDENCE_CODE: SOFTWARE                                              
 800 SITE_DESCRIPTION: binding site for residue PKY A 401                 
 800                                                                      
 800 SITE_IDENTIFIER: AC2                                                 
 800 EVIDENCE_CODE: SOFTWARE                                              
 800 SITE_DESCRIPTION: binding site for Di-peptide PKY B 401 and SER B    
 800  64                                                                  
 800                                                                      
 800 SITE_IDENTIFIER: AC3                                                 
 800 EVIDENCE_CODE: SOFTWARE                                              
 800 SITE_DESCRIPTION: binding site for Di-peptide PKY C 401 and SER C    
 800  64                                                                  
 800                                                                      
 800 SITE_IDENTIFIER: AC4                                                 
 800 EVIDENCE_CODE: SOFTWARE                                              
 800 SITE_DESCRIPTION: binding site for Di-peptide PKY D 401 and SER D    
 800  64                                                                  

>  <DBREF>
 6TZG A    0   359  UNP    Q6DRA1   Q6DRA1_ACIBA    24    383             
 6TZG B    0   359  UNP    Q6DRA1   Q6DRA1_ACIBA    24    383             
 6TZG C    0   359  UNP    Q6DRA1   Q6DRA1_ACIBA    24    383             
 6TZG D    0   359  UNP    Q6DRA1   Q6DRA1_ACIBA    24    383             

>  <SEQADV>
 6TZG MET A   -1  UNP  Q6DRA1              EXPRESSION TAG                 
 6TZG MET B   -1  UNP  Q6DRA1              EXPRESSION TAG                 
 6TZG MET C   -1  UNP  Q6DRA1              EXPRESSION TAG                 
 6TZG MET D   -1  UNP  Q6DRA1              EXPRESSION TAG                 

>  <SEQRES>
   1 A  361  MET ASP ASN THR PRO LYS ASP GLN GLU ILE LYS LYS LEU          
   2 A  361  VAL ASP GLN ASN PHE LYS PRO LEU LEU GLU LYS TYR ASP          
   3 A  361  VAL PRO GLY MET ALA VAL GLY VAL ILE GLN ASN ASN LYS          
   4 A  361  LYS TYR GLU MET TYR TYR GLY LEU GLN SER VAL GLN ASP          
   5 A  361  LYS LYS ALA VAL ASN SER ASN THR ILE PHE GLU LEU GLY          
   6 A  361  SER VAL SER LYS LEU PHE THR ALA THR ALA GLY GLY TYR          
   7 A  361  ALA LYS ASN LYS GLY LYS ILE SER PHE ASP ASP THR PRO          
   8 A  361  GLY LYS TYR TRP LYS GLU LEU LYS ASN THR PRO ILE ASP          
   9 A  361  GLN VAL ASN LEU LEU GLN LEU ALA THR TYR THR SER GLY          
  10 A  361  ASN LEU ALA LEU GLN PHE PRO ASP GLU VAL GLN THR ASP          
  11 A  361  GLN GLN VAL LEU THR PHE PHE LYS ASP TRP LYS PRO LYS          
  12 A  361  ASN PRO ILE GLY GLU TYR ARG GLN TYR SER ASN PRO SER          
  13 A  361  ILE GLY LEU PHE GLY LYS VAL VAL ALA LEU SER MET ASN          
  14 A  361  LYS PRO PHE ASP GLN VAL LEU GLU LYS THR ILE PHE PRO          
  15 A  361  ALA LEU GLY LEU LYS HIS SER TYR VAL ASN VAL PRO LYS          
  16 A  361  THR GLN MET GLN ASN TYR ALA PHE GLY TYR ASN GLN GLU          
  17 A  361  ASN GLN PRO ILE ARG VAL ASN PRO GLY PRO LEU ASP ALA          
  18 A  361  PRO ALA TYR GLY VAL LYS SER THR LEU PRO ASP MET LEU          
  19 A  361  SER PHE ILE HIS ALA ASN LEU ASN PRO GLN LYS TYR PRO          
  20 A  361  THR ASP ILE GLN ARG ALA ILE ASN GLU THR HIS GLN GLY          
  21 A  361  ARG TYR GLN VAL ASN THR MET TYR GLN ALA LEU GLY TRP          
  22 A  361  GLU GLU PHE SER TYR PRO ALA THR LEU GLN THR LEU LEU          
  23 A  361  ASP SER ASN SER GLU GLN ILE VAL MET LYS PRO ASN LYS          
  24 A  361  VAL THR ALA ILE SER LYS GLU PRO SER VAL LYS MET TYR          
  25 A  361  HIS LYS THR GLY SER THR SER GLY PHE GLY THR TYR VAL          
  26 A  361  VAL PHE ILE PRO LYS GLU ASN ILE GLY LEU VAL MET LEU          
  27 A  361  THR ASN LYS ARG ILE PRO ASN GLU GLU ARG ILE LYS ALA          
  28 A  361  ALA TYR VAL VAL LEU ASN ALA ILE LYS LYS                      
   1 B  361  MET ASP ASN THR PRO LYS ASP GLN GLU ILE LYS LYS LEU          
   2 B  361  VAL ASP GLN ASN PHE LYS PRO LEU LEU GLU LYS TYR ASP          
   3 B  361  VAL PRO GLY MET ALA VAL GLY VAL ILE GLN ASN ASN LYS          
   4 B  361  LYS TYR GLU MET TYR TYR GLY LEU GLN SER VAL GLN ASP          
   5 B  361  LYS LYS ALA VAL ASN SER ASN THR ILE PHE GLU LEU GLY          
   6 B  361  SER VAL SER LYS LEU PHE THR ALA THR ALA GLY GLY TYR          
   7 B  361  ALA LYS ASN LYS GLY LYS ILE SER PHE ASP ASP THR PRO          
   8 B  361  GLY LYS TYR TRP LYS GLU LEU LYS ASN THR PRO ILE ASP          
   9 B  361  GLN VAL ASN LEU LEU GLN LEU ALA THR TYR THR SER GLY          
  10 B  361  ASN LEU ALA LEU GLN PHE PRO ASP GLU VAL GLN THR ASP          
  11 B  361  GLN GLN VAL LEU THR PHE PHE LYS ASP TRP LYS PRO LYS          
  12 B  361  ASN PRO ILE GLY GLU TYR ARG GLN TYR SER ASN PRO SER          
  13 B  361  ILE GLY LEU PHE GLY LYS VAL VAL ALA LEU SER MET ASN          
  14 B  361  LYS PRO PHE ASP GLN VAL LEU GLU LYS THR ILE PHE PRO          
  15 B  361  ALA LEU GLY LEU LYS HIS SER TYR VAL ASN VAL PRO LYS          
  16 B  361  THR GLN MET GLN ASN TYR ALA PHE GLY TYR ASN GLN GLU          
  17 B  361  ASN GLN PRO ILE ARG VAL ASN PRO GLY PRO LEU ASP ALA          
  18 B  361  PRO ALA TYR GLY VAL LYS SER THR LEU PRO ASP MET LEU          
  19 B  361  SER PHE ILE HIS ALA ASN LEU ASN PRO GLN LYS TYR PRO          
  20 B  361  THR ASP ILE GLN ARG ALA ILE ASN GLU THR HIS GLN GLY          
  21 B  361  ARG TYR GLN VAL ASN THR MET TYR GLN ALA LEU GLY TRP          
  22 B  361  GLU GLU PHE SER TYR PRO ALA THR LEU GLN THR LEU LEU          
  23 B  361  ASP SER ASN SER GLU GLN ILE VAL MET LYS PRO ASN LYS          
  24 B  361  VAL THR ALA ILE SER LYS GLU PRO SER VAL LYS MET TYR          
  25 B  361  HIS LYS THR GLY SER THR SER GLY PHE GLY THR TYR VAL          
  26 B  361  VAL PHE ILE PRO LYS GLU ASN ILE GLY LEU VAL MET LEU          
  27 B  361  THR ASN LYS ARG ILE PRO ASN GLU GLU ARG ILE LYS ALA          
  28 B  361  ALA TYR VAL VAL LEU ASN ALA ILE LYS LYS                      
   1 C  361  MET ASP ASN THR PRO LYS ASP GLN GLU ILE LYS LYS LEU          
   2 C  361  VAL ASP GLN ASN PHE LYS PRO LEU LEU GLU LYS TYR ASP          
   3 C  361  VAL PRO GLY MET ALA VAL GLY VAL ILE GLN ASN ASN LYS          
   4 C  361  LYS TYR GLU MET TYR TYR GLY LEU GLN SER VAL GLN ASP          
   5 C  361  LYS LYS ALA VAL ASN SER ASN THR ILE PHE GLU LEU GLY          
   6 C  361  SER VAL SER LYS LEU PHE THR ALA THR ALA GLY GLY TYR          
   7 C  361  ALA LYS ASN LYS GLY LYS ILE SER PHE ASP ASP THR PRO          
   8 C  361  GLY LYS TYR TRP LYS GLU LEU LYS ASN THR PRO ILE ASP          
   9 C  361  GLN VAL ASN LEU LEU GLN LEU ALA THR TYR THR SER GLY          
  10 C  361  ASN LEU ALA LEU GLN PHE PRO ASP GLU VAL GLN THR ASP          
  11 C  361  GLN GLN VAL LEU THR PHE PHE LYS ASP TRP LYS PRO LYS          
  12 C  361  ASN PRO ILE GLY GLU TYR ARG GLN TYR SER ASN PRO SER          
  13 C  361  ILE GLY LEU PHE GLY LYS VAL VAL ALA LEU SER MET ASN          
  14 C  361  LYS PRO PHE ASP GLN VAL LEU GLU LYS THR ILE PHE PRO          
  15 C  361  ALA LEU GLY LEU LYS HIS SER TYR VAL ASN VAL PRO LYS          
  16 C  361  THR GLN MET GLN ASN TYR ALA PHE GLY TYR ASN GLN GLU          
  17 C  361  ASN GLN PRO ILE ARG VAL ASN PRO GLY PRO LEU ASP ALA          
  18 C  361  PRO ALA TYR GLY VAL LYS SER THR LEU PRO ASP MET LEU          
  19 C  361  SER PHE ILE HIS ALA ASN LEU ASN PRO GLN LYS TYR PRO          
  20 C  361  THR ASP ILE GLN ARG ALA ILE ASN GLU THR HIS GLN GLY          
  21 C  361  ARG TYR GLN VAL ASN THR MET TYR GLN ALA LEU GLY TRP          
  22 C  361  GLU GLU PHE SER TYR PRO ALA THR LEU GLN THR LEU LEU          
  23 C  361  ASP SER ASN SER GLU GLN ILE VAL MET LYS PRO ASN LYS          
  24 C  361  VAL THR ALA ILE SER LYS GLU PRO SER VAL LYS MET TYR          
  25 C  361  HIS LYS THR GLY SER THR SER GLY PHE GLY THR TYR VAL          
  26 C  361  VAL PHE ILE PRO LYS GLU ASN ILE GLY LEU VAL MET LEU          
  27 C  361  THR ASN LYS ARG ILE PRO ASN GLU GLU ARG ILE LYS ALA          
  28 C  361  ALA TYR VAL VAL LEU ASN ALA ILE LYS LYS                      
   1 D  361  MET ASP ASN THR PRO LYS ASP GLN GLU ILE LYS LYS LEU          
   2 D  361  VAL ASP GLN ASN PHE LYS PRO LEU LEU GLU LYS TYR ASP          
   3 D  361  VAL PRO GLY MET ALA VAL GLY VAL ILE GLN ASN ASN LYS          
   4 D  361  LYS TYR GLU MET TYR TYR GLY LEU GLN SER VAL GLN ASP          
   5 D  361  LYS LYS ALA VAL ASN SER ASN THR ILE PHE GLU LEU GLY          
   6 D  361  SER VAL SER LYS LEU PHE THR ALA THR ALA GLY GLY TYR          
   7 D  361  ALA LYS ASN LYS GLY LYS ILE SER PHE ASP ASP THR PRO          
   8 D  361  GLY LYS TYR TRP LYS GLU LEU LYS ASN THR PRO ILE ASP          
   9 D  361  GLN VAL ASN LEU LEU GLN LEU ALA THR TYR THR SER GLY          
  10 D  361  ASN LEU ALA LEU GLN PHE PRO ASP GLU VAL GLN THR ASP          
  11 D  361  GLN GLN VAL LEU THR PHE PHE LYS ASP TRP LYS PRO LYS          
  12 D  361  ASN PRO ILE GLY GLU TYR ARG GLN TYR SER ASN PRO SER          
  13 D  361  ILE GLY LEU PHE GLY LYS VAL VAL ALA LEU SER MET ASN          
  14 D  361  LYS PRO PHE ASP GLN VAL LEU GLU LYS THR ILE PHE PRO          
  15 D  361  ALA LEU GLY LEU LYS HIS SER TYR VAL ASN VAL PRO LYS          
  16 D  361  THR GLN MET GLN ASN TYR ALA PHE GLY TYR ASN GLN GLU          
  17 D  361  ASN GLN PRO ILE ARG VAL ASN PRO GLY PRO LEU ASP ALA          
  18 D  361  PRO ALA TYR GLY VAL LYS SER THR LEU PRO ASP MET LEU          
  19 D  361  SER PHE ILE HIS ALA ASN LEU ASN PRO GLN LYS TYR PRO          
  20 D  361  THR ASP ILE GLN ARG ALA ILE ASN GLU THR HIS GLN GLY          
  21 D  361  ARG TYR GLN VAL ASN THR MET TYR GLN ALA LEU GLY TRP          
  22 D  361  GLU GLU PHE SER TYR PRO ALA THR LEU GLN THR LEU LEU          
  23 D  361  ASP SER ASN SER GLU GLN ILE VAL MET LYS PRO ASN LYS          
  24 D  361  VAL THR ALA ILE SER LYS GLU PRO SER VAL LYS MET TYR          
  25 D  361  HIS LYS THR GLY SER THR SER GLY PHE GLY THR TYR VAL          
  26 D  361  VAL PHE ILE PRO LYS GLU ASN ILE GLY LEU VAL MET LEU          
  27 D  361  THR ASN LYS ARG ILE PRO ASN GLU GLU ARG ILE LYS ALA          
  28 D  361  ALA TYR VAL VAL LEU ASN ALA ILE LYS LYS                      

>  <HET>
 PKY  A 401      22                                                       
 PKY  B 401      22                                                       
 PKY  C 401      22                                                       
 PKY  D 401      22                                                       

>  <HETNAM>
     PKY [4-(3-AMINOCARBONYLPHENYL)-1,2,3-TRIAZOL-1-YL]METHYL-            
   2 PKY  PHOSPHONOOXY-BORINIC ACID                                       

>  <FORMUL>
   5  PKY    4(C10 H12 B N4 O6 P)                                         
   9  HOH   *488(H2 O)                                                    

>  <HELIX>
   1 AA1 PRO A    3  PHE A   16  1                                  14    
   2 AA2 LYS A   17  ASP A   24  1                                   8    
   3 AA3 GLY A   63  VAL A   65  5                                   3    
   4 AA4 SER A   66  LYS A   80  1                                  15    
   5 AA5 THR A   88  TYR A   92  5                                   5    
   6 AA6 TRP A   93  LYS A   97  5                                   5    
   7 AA7 THR A   99  VAL A  104  5                                   6    
   8 AA8 ASN A  105  THR A  111  1                                   7    
   9 AA9 THR A  127  ASP A  137  1                                  11    
  10 AB1 SER A  151  MET A  166  1                                  16    
  11 AB2 PRO A  169  THR A  177  1                                   9    
  12 AB3 THR A  177  LEU A  182  1                                   6    
  13 AB4 PRO A  192  TYR A  199  5                                   8    
  14 AB5 LEU A  217  GLY A  223  1                                   7    
  15 AB6 THR A  227  ASN A  240  1                                  14    
  16 AB7 PRO A  241  TYR A  244  5                                   4    
  17 AB8 PRO A  245  HIS A  256  1                                  12    
  18 AB9 THR A  279  SER A  286  1                                   8    
  19 AC1 SER A  288  LYS A  294  1                                   7    
  20 AC2 PRO A  327  GLU A  329  5                                   3    
  21 AC3 PRO A  342  ILE A  357  1                                  16    
  22 AC4 LYS B    4  PHE B   16  1                                  13    
  23 AC5 LYS B   17  ASP B   24  1                                   8    
  24 AC6 GLY B   63  VAL B   65  5                                   3    
  25 AC7 SER B   66  LYS B   80  1                                  15    
  26 AC8 THR B   88  TYR B   92  5                                   5    
  27 AC9 TRP B   93  LYS B   97  5                                   5    
  28 AD1 THR B   99  VAL B  104  5                                   6    
  29 AD2 ASN B  105  THR B  111  1                                   7    
  30 AD3 THR B  127  ASP B  137  1                                  11    
  31 AD4 SER B  151  MET B  166  1                                  16    
  32 AD5 PRO B  169  THR B  177  1                                   9    
  33 AD6 THR B  177  LEU B  182  1                                   6    
  34 AD7 PRO B  192  TYR B  199  5                                   8    
  35 AD8 LEU B  217  GLY B  223  1                                   7    
  36 AD9 THR B  227  ASN B  240  1                                  14    
  37 AE1 PRO B  241  TYR B  244  5                                   4    
  38 AE2 PRO B  245  HIS B  256  1                                  12    
  39 AE3 THR B  279  SER B  286  1                                   8    
  40 AE4 SER B  288  LYS B  294  1                                   7    
  41 AE5 PRO B  342  ASN B  355  1                                  14    
  42 AE6 GLN C    6  PHE C   16  1                                  11    
  43 AE7 LYS C   17  ASP C   24  1                                   8    
  44 AE8 GLY C   63  VAL C   65  5                                   3    
  45 AE9 SER C   66  LYS C   80  1                                  15    
  46 AF1 THR C   88  TYR C   92  5                                   5    
  47 AF2 TRP C   93  LYS C   97  5                                   5    
  48 AF3 THR C   99  VAL C  104  5                                   6    
  49 AF4 ASN C  105  THR C  111  1                                   7    
  50 AF5 THR C  127  ASP C  137  1                                  11    
  51 AF6 SER C  151  MET C  166  1                                  16    
  52 AF7 PRO C  169  THR C  177  1                                   9    
  53 AF8 THR C  177  LEU C  182  1                                   6    
  54 AF9 PRO C  192  TYR C  199  5                                   8    
  55 AG1 LEU C  217  GLY C  223  1                                   7    
  56 AG2 THR C  227  ASN C  240  1                                  14    
  57 AG3 PRO C  241  TYR C  244  5                                   4    
  58 AG4 PRO C  245  HIS C  256  1                                  12    
  59 AG5 THR C  279  SER C  286  1                                   8    
  60 AG6 SER C  288  LYS C  294  1                                   7    
  61 AG7 PRO C  327  GLU C  329  5                                   3    
  62 AG8 PRO C  342  ILE C  357  1                                  16    
  63 AG9 LYS D    4  PHE D   16  1                                  13    
  64 AH1 LYS D   17  ASP D   24  1                                   8    
  65 AH2 GLY D   63  VAL D   65  5                                   3    
  66 AH3 SER D   66  LYS D   80  1                                  15    
  67 AH4 THR D   88  TYR D   92  5                                   5    
  68 AH5 TRP D   93  LYS D   97  5                                   5    
  69 AH6 THR D   99  VAL D  104  5                                   6    
  70 AH7 ASN D  105  THR D  111  1                                   7    
  71 AH8 THR D  127  ASP D  137  1                                  11    
  72 AH9 SER D  151  MET D  166  1                                  16    
  73 AI1 PRO D  169  THR D  177  1                                   9    
  74 AI2 THR D  177  LEU D  182  1                                   6    
  75 AI3 PRO D  192  TYR D  199  5                                   8    
  76 AI4 LEU D  217  GLY D  223  1                                   7    
  77 AI5 THR D  227  ASN D  240  1                                  14    
  78 AI6 PRO D  241  TYR D  244  5                                   4    
  79 AI7 PRO D  245  HIS D  256  1                                  12    
  80 AI8 THR D  279  SER D  286  1                                   8    
  81 AI9 SER D  288  LYS D  294  1                                   7    
  82 AJ1 PRO D  327  GLU D  329  5                                   3    
  83 AJ2 PRO D  342  ILE D  357  1                                  16    

>  <SHEET>
   1 AA1 9 LYS A  52  ALA A  53  0                                        
   2 AA1 9 LYS A  37  SER A  47 -1  N  GLN A  46   O  LYS A  52           
   3 AA1 9 GLY A  27  GLN A  34 -1  N  VAL A  32   O  TYR A  39           
   4 AA1 9 ILE A 331  THR A 337 -1  O  LEU A 336   N  ALA A  29           
   5 AA1 9 GLY A 320  ILE A 326 -1  N  TYR A 322   O  MET A 335           
   6 AA1 9 LYS A 308  SER A 315 -1  N  GLY A 314   O  THR A 321           
   7 AA1 9 GLU A 272  SER A 275 -1  N  PHE A 274   O  MET A 309           
   8 AA1 9 MET A 265  GLN A 267 -1  N  TYR A 266   O  GLU A 273           
   9 AA1 9 TYR A 260  VAL A 262 -1  N  VAL A 262   O  MET A 265           
   1 AA2 2 PHE A  60  GLU A  61  0                                        
   2 AA2 2 LYS A 225  SER A 226 -1  O  SER A 226   N  PHE A  60           
   1 AA3 2 TYR A 147  ARG A 148  0                                        
   2 AA3 2 ASN A 296  LYS A 297 -1  O  ASN A 296   N  ARG A 148           
   1 AA4 2 GLY A 202  TYR A 203  0                                        
   2 AA4 2 PRO A 209  ILE A 210 -1  O  ILE A 210   N  GLY A 202           
   1 AA5 9 LYS B  52  ALA B  53  0                                        
   2 AA5 9 LYS B  37  SER B  47 -1  N  GLN B  46   O  LYS B  52           
   3 AA5 9 GLY B  27  GLN B  34 -1  N  VAL B  32   O  TYR B  39           
   4 AA5 9 ILE B 331  THR B 337 -1  O  LEU B 336   N  ALA B  29           
   5 AA5 9 GLY B 320  ILE B 326 -1  N  TYR B 322   O  MET B 335           
   6 AA5 9 LYS B 308  SER B 315 -1  N  GLY B 314   O  THR B 321           
   7 AA5 9 GLU B 272  SER B 275 -1  N  PHE B 274   O  MET B 309           
   8 AA5 9 MET B 265  GLN B 267 -1  N  TYR B 266   O  GLU B 273           
   9 AA5 9 TYR B 260  VAL B 262 -1  N  VAL B 262   O  MET B 265           
   1 AA6 2 PHE B  60  GLU B  61  0                                        
   2 AA6 2 LYS B 225  SER B 226 -1  O  SER B 226   N  PHE B  60           
   1 AA7 2 TYR B 147  ARG B 148  0                                        
   2 AA7 2 ASN B 296  LYS B 297 -1  O  ASN B 296   N  ARG B 148           
   1 AA8 2 GLY B 202  TYR B 203  0                                        
   2 AA8 2 PRO B 209  ILE B 210 -1  O  ILE B 210   N  GLY B 202           
   1 AA9 9 LYS C  52  ALA C  53  0                                        
   2 AA9 9 LYS C  37  SER C  47 -1  N  GLN C  46   O  LYS C  52           
   3 AA9 9 GLY C  27  GLN C  34 -1  N  VAL C  32   O  TYR C  39           
   4 AA9 9 ILE C 331  THR C 337 -1  O  LEU C 336   N  ALA C  29           
   5 AA9 9 GLY C 320  ILE C 326 -1  N  TYR C 322   O  MET C 335           
   6 AA9 9 LYS C 308  SER C 315 -1  N  GLY C 314   O  THR C 321           
   7 AA9 9 GLU C 272  SER C 275 -1  N  PHE C 274   O  MET C 309           
   8 AA9 9 MET C 265  GLN C 267 -1  N  TYR C 266   O  GLU C 273           
   9 AA9 9 TYR C 260  VAL C 262 -1  N  VAL C 262   O  MET C 265           
   1 AB1 2 PHE C  60  GLU C  61  0                                        
   2 AB1 2 LYS C 225  SER C 226 -1  O  SER C 226   N  PHE C  60           
   1 AB2 2 TYR C 147  ARG C 148  0                                        
   2 AB2 2 ASN C 296  LYS C 297 -1  O  ASN C 296   N  ARG C 148           
   1 AB3 2 GLY C 202  TYR C 203  0                                        
   2 AB3 2 PRO C 209  ILE C 210 -1  O  ILE C 210   N  GLY C 202           
   1 AB4 9 LYS D  52  ALA D  53  0                                        
   2 AB4 9 LYS D  37  SER D  47 -1  N  GLN D  46   O  LYS D  52           
   3 AB4 9 GLY D  27  GLN D  34 -1  N  VAL D  32   O  TYR D  39           
   4 AB4 9 ILE D 331  THR D 337 -1  O  LEU D 336   N  ALA D  29           
   5 AB4 9 GLY D 320  ILE D 326 -1  N  TYR D 322   O  MET D 335           
   6 AB4 9 LYS D 308  SER D 315 -1  N  GLY D 314   O  THR D 321           
   7 AB4 9 GLU D 272  SER D 275 -1  N  PHE D 274   O  MET D 309           
   8 AB4 9 MET D 265  GLN D 267 -1  N  TYR D 266   O  GLU D 273           
   9 AB4 9 TYR D 260  VAL D 262 -1  N  VAL D 262   O  MET D 265           
   1 AB5 2 PHE D  60  GLU D  61  0                                        
   2 AB5 2 LYS D 225  SER D 226 -1  O  SER D 226   N  PHE D  60           
   1 AB6 2 TYR D 147  ARG D 148  0                                        
   2 AB6 2 ASN D 296  LYS D 297 -1  O  ASN D 296   N  ARG D 148           
   1 AB7 2 GLY D 202  TYR D 203  0                                        
   2 AB7 2 PRO D 209  ILE D 210 -1  O  ILE D 210   N  GLY D 202           

>  <LINK>
       OG  SER A  64                 B1  PKY A 401     1555   1555  1.44  
       OG  SER B  64                 B1  PKY B 401     1555   1555  1.44  
       OG  SER C  64                 B1  PKY C 401     1555   1555  1.42  
       OG  SER D  64                 B1  PKY D 401     1555   1555  1.42  

>  <CISPEP>
   1 TYR A  276    PRO A  277          0         4.77                     
   2 TYR B  276    PRO B  277          0         3.46                     
   3 TYR C  276    PRO C  277          0         1.49                     
   4 TYR D  276    PRO D  277          0         3.74                     

>  <SITE>
   1 AC1 14 SER A  64  GLN A 120  TYR A 150  ASN A 152                    
   2 AC1 14 ASN A 213  TYR A 222  THR A 313  GLY A 314                    
   3 AC1 14 SER A 315  THR A 316  SER A 317  HOH A 507                    
   4 AC1 14 HOH A 543  HOH A 630                                          
   1 AC2 18 LEU B  62  GLY B  63  VAL B  65  SER B  66                    
   2 AC2 18 LYS B  67  GLN B 120  TYR B 150  ASN B 152                    
   3 AC2 18 ALA B 221  LYS B 312  THR B 313  GLY B 314                    
   4 AC2 18 SER B 315  ARG B 340  HOH B 505  HOH B 506                    
   5 AC2 18 HOH B 530  HOH B 559                                          
   1 AC3 16 LEU C  62  GLY C  63  VAL C  65  SER C  66                    
   2 AC3 16 LYS C  67  GLN C 120  TYR C 150  ASN C 152                    
   3 AC3 16 ALA C 221  THR C 313  GLY C 314  SER C 315                    
   4 AC3 16 SER C 317  ARG C 340  HOH C 502  HOH C 575                    
   1 AC4 14 LEU D  62  GLY D  63  VAL D  65  SER D  66                    
   2 AC4 14 LYS D  67  GLN D 120  TYR D 150  ASN D 152                    
   3 AC4 14 ALA D 221  THR D 313  GLY D 314  SER D 315                    
   4 AC4 14 HOH D 501  HOH D 531                                          

>  <ORIGX1>
      1.000000  0.000000  0.000000        0.00000                         

>  <ORIGX2>
      0.000000  1.000000  0.000000        0.00000                         

>  <ORIGX3>
      0.000000  0.000000  1.000000        0.00000                         

>  <SCALE1>
      0.011265  0.000000  0.004766        0.00000                         

>  <SCALE2>
      0.000000  0.012307  0.000000        0.00000                         

>  <SCALE3>
      0.000000  0.000000  0.010252        0.00000                         

>  <MASTER>
      428    0    4   83   60    0   17    611647    4   92  112          

$$$$
