start_structures/Ligand_Substrate/Ligand_Complex_Stripped/PTX_1RGZ.pdb
 OpenBabel08222315203D

 23 23  0  0  1  0  0  0  0  0999 V2000
   17.2800   16.4930    9.7630 N   0  0  0  0  0  0  0  0  0  0  0  0
   17.9850   15.4860    9.0080 C   0  0  2  0  0  0  0  0  0  0  0  0
   18.3950   14.2300    9.7360 C   0  0  0  0  0  0  0  0  0  0  0  0
   18.8380   13.2940    9.0440 O   0  0  0  0  0  0  0  0  0  0  0  0
   19.2490   16.1070    8.3660 C   0  0  0  0  0  0  0  0  0  0  0  0
   18.8570   17.0930    7.4410 O   0  0  0  0  0  0  0  0  0  0  0  0
   19.3500   18.5450    7.9280 P   0  0  1  0  0  0  0  0  0  0  0  0
   18.9740   18.7840    9.3890 O   0  0  0  0  0  0  0  0  0  0  0  0
   20.8030   18.7660    7.5180 O   0  0  0  0  0  0  0  0  0  0  0  0
   18.3440   19.7100    6.9190 C   0  0  0  0  0  0  0  0  0  0  0  0
   17.0020   19.8580    7.5300 N   0  0  0  0  0  0  0  0  0  0  0  0
   15.9580   19.6490    6.6920 C   0  0  0  0  0  0  0  0  0  0  0  0
   16.1800   19.3800    5.5300 O   0  0  0  0  0  0  0  0  0  0  0  0
   14.6260   19.8330    7.3450 C   0  0  0  0  0  0  0  0  0  0  0  0
   13.7580   18.8450    7.7100 N   0  0  0  0  0  0  0  0  0  0  0  0
   14.2180   17.4810    7.4470 O   0  0  0  0  0  0  0  0  0  0  0  0
   13.1640   16.6460    7.9230 C   0  0  0  0  0  0  0  0  0  0  0  0
   14.1730   21.2220    7.6230 C   0  0  0  0  0  0  0  0  0  0  0  0
   15.0610   22.3590    7.3960 C   0  0  0  0  0  0  0  0  0  0  0  0
   14.3450   23.8260    7.7600 S   0  0  0  0  0  0  0  0  0  0  0  0
   12.9240   23.0530    8.2440 C   0  0  0  0  0  0  0  0  0  0  0  0
   11.7940   23.8030    8.6460 N   0  0  0  0  0  0  0  0  0  0  0  0
   12.9960   21.7390    8.0660 N   0  0  0  0  0  0  0  0  0  0  0  0
  2  3  1  0  0  0  0
  2  1  1  1  0  0  0
  4  3  2  0  0  0  0
  5  2  1  0  0  0  0
  6  7  1  0  0  0  0
  6  5  1  0  0  0  0
  7  8  2  1  0  0  0
  7  9  1  0  0  0  0
  7 10  1  0  0  0  0
 10 11  1  0  0  0  0
 11 12  1  0  0  0  0
 12 13  2  0  0  0  0
 12 14  1  0  0  0  0
 14 15  2  0  0  0  0
 14 18  1  0  0  0  0
 15 16  1  0  0  0  0
 16 17  1  0  0  0  0
 18 19  2  0  0  0  0
 18 23  1  0  0  0  0
 19 20  1  0  0  0  0
 20 21  1  0  0  0  0
 21 22  1  0  0  0  0
 21 23  2  0  0  0  0
M  END
>  <HEADER>
    HYDROLASE                               13-NOV-03   1RGZ              

>  <TITLE>
    ENTEROBACTER CLOACAE GC1 CLASS C BETA-LACTAMASE COMPLEXED WITH        
   2 TRANSITION-STATE ANALOG OF CEFOTAXIME                                

>  <COMPND>
    MOL_ID: 1;                                                            
   2 MOLECULE: CLASS C BETA-LACTAMASE;                                    
   3 CHAIN: A;                                                            
   4 EC: 3.5.2.6;                                                         
   5 ENGINEERED: YES                                                      

>  <SOURCE>
    MOL_ID: 1;                                                            
   2 ORGANISM_SCIENTIFIC: ENTEROBACTER CLOACAE;                           
   3 ORGANISM_TAXID: 550;                                                 
   4 GENE: BLA;                                                           
   5 EXPRESSION_SYSTEM: ESCHERICHIA COLI;                                 
   6 EXPRESSION_SYSTEM_TAXID: 562;                                        
   7 EXPRESSION_SYSTEM_STRAIN: AS226-51;                                  
   8 EXPRESSION_SYSTEM_VECTOR_TYPE: PLASMID;                              
   9 EXPRESSION_SYSTEM_PLASMID: PHSG398                                   

>  <KEYWDS>
    HYDROLASE, CEPHALOSPORINASE, ENZYME INHIBITION, PHOSPHONATE, BETA-    
   2 LACTAM ANTIBIOTICS, DRUG DESIGN                                      

>  <EXPDTA>
    X-RAY DIFFRACTION                                                     

>  <AUTHOR>
    M.NUKAGA,S.KUMAR,K.NUKAGA,R.F.PRATT,J.R.KNOX                          

>  <REVDAT>
   3   13-JUL-11 1RGZ    1       VERSN                                    
   2   24-FEB-09 1RGZ    1       VERSN                                    
   1   06-APR-04 1RGZ    0                                                

>  <JRNL>
      AUTH   M.NUKAGA,S.KUMAR,K.NUKAGA,R.F.PRATT,J.R.KNOX                 
      TITL   HYDROLYSIS OF THIRD-GENERATION CEPHALOSPORINS BY CLASS C     
      TITL 2 BETA-LACTAMASES. STRUCTURES OF A TRANSITION STATE ANALOG OF  
      TITL 3 CEFOTOXAMINE IN WILD-TYPE AND EXTENDED SPECTRUM ENZYMES.     
      REF    J.BIOL.CHEM.                  V. 279  9344 2004              
      REFN                   ISSN 0021-9258                               
      PMID   14660590                                                     
      DOI    10.1074/JBC.M312356200                                       

>  <REMARK>
   2                                                                      
   2 RESOLUTION.    1.37 ANGSTROMS.                                       
   3                                                                      
   3 REFINEMENT.                                                          
   3   PROGRAM     : SHELXL-97                                            
   3   AUTHORS     : G.M.SHELDRICK                                        
   3                                                                      
   3  DATA USED IN REFINEMENT.                                            
   3   RESOLUTION RANGE HIGH (ANGSTROMS) : 1.37                           
   3   RESOLUTION RANGE LOW  (ANGSTROMS) : 20.00                          
   3   DATA CUTOFF            (SIGMA(F)) : 0.000                          
   3   COMPLETENESS FOR RANGE        (%) : 95.3                           
   3   CROSS-VALIDATION METHOD           : THROUGHOUT                     
   3   FREE R VALUE TEST SET SELECTION   : RANDOM                         
   3                                                                      
   3  FIT TO DATA USED IN REFINEMENT (NO CUTOFF).                         
   3   R VALUE   (WORKING + TEST SET, NO CUTOFF) : 0.142                  
   3   R VALUE          (WORKING SET, NO CUTOFF) : 0.139                  
   3   FREE R VALUE                  (NO CUTOFF) : 0.195                  
   3   FREE R VALUE TEST SET SIZE (%, NO CUTOFF) : 5.000                  
   3   FREE R VALUE TEST SET COUNT   (NO CUTOFF) : 3215                   
   3   TOTAL NUMBER OF REFLECTIONS   (NO CUTOFF) : 64648                  
   3                                                                      
   3  FIT/AGREEMENT OF MODEL FOR DATA WITH F>4SIG(F).                     
   3   R VALUE   (WORKING + TEST SET, F>4SIG(F)) : 0.128                  
   3   R VALUE          (WORKING SET, F>4SIG(F)) : 0.125                  
   3   FREE R VALUE                  (F>4SIG(F)) : 0.182                  
   3   FREE R VALUE TEST SET SIZE (%, F>4SIG(F)) : 5.300                  
   3   FREE R VALUE TEST SET COUNT   (F>4SIG(F)) : 2847                   
   3   TOTAL NUMBER OF REFLECTIONS   (F>4SIG(F)) : 54111                  
   3                                                                      
   3  NUMBER OF NON-HYDROGEN ATOMS USED IN REFINEMENT.                    
   3   PROTEIN ATOMS      : 2761                                          
   3   NUCLEIC ACID ATOMS : 0                                             
   3   HETEROGEN ATOMS    : 29                                            
   3   SOLVENT ATOMS      : 398                                           
   3                                                                      
   3  MODEL REFINEMENT.                                                   
   3   OCCUPANCY SUM OF NON-HYDROGEN ATOMS      : 3178.25                 
   3   OCCUPANCY SUM OF HYDROGEN ATOMS          : 2675.00                 
   3   NUMBER OF DISCRETELY DISORDERED RESIDUES : 34                      
   3   NUMBER OF LEAST-SQUARES PARAMETERS       : 29748                   
   3   NUMBER OF RESTRAINTS                     : 37290                   
   3                                                                      
   3  RMS DEVIATIONS FROM RESTRAINT TARGET VALUES.                        
   3   BOND LENGTHS                         (A) : 0.017                   
   3   ANGLE DISTANCES                      (A) : 0.033                   
   3   SIMILAR DISTANCES (NO TARGET VALUES) (A) : 0.000                   
   3   DISTANCES FROM RESTRAINT PLANES      (A) : 0.030                   
   3   ZERO CHIRAL VOLUMES               (A**3) : 0.062                   
   3   NON-ZERO CHIRAL VOLUMES           (A**3) : 0.064                   
   3   ANTI-BUMPING DISTANCE RESTRAINTS     (A) : 0.081                   
   3   RIGID-BOND ADP COMPONENTS         (A**2) : 0.003                   
   3   SIMILAR ADP COMPONENTS            (A**2) : 0.050                   
   3   APPROXIMATELY ISOTROPIC ADPS      (A**2) : 0.085                   
   3                                                                      
   3  BULK SOLVENT MODELING.                                              
   3   METHOD USED: NULL                                                  
   3                                                                      
   3  STEREOCHEMISTRY TARGET VALUES : ENGH & HUBER                        
   3   SPECIAL CASE: NULL                                                 
   3                                                                      
   3  OTHER REFINEMENT REMARKS:                                           
   3  THE AUTHOR NOTES THAT RESIDUES 219 TO 225 IN THE OMEGA LOOP, HAVE 2 
   3  CONFORMATIONS (WITH                                                 
   3  0.75 AND 0.25 OCCUPANCIES, CONFORMERS A AND B RESPECTIVELY). ONLY   
   3  THE HIGHER OCCUPANCY                                                
   3  CONFORMER (A) BINDS THE PHOSPHONATE LIGAND (PTX). THE PRECEEDING    
   3  RESIDUE (218) IS ALSO                                               
   3  ONLY LINKED TO CONFORMER A OF RESIDUE 219. LIKEWISE, THERE ARE TWO  
   3  SETS OF WATER MOLECULES                                             
   3  IN THE BINDING SITE WITH CORRESPONDING OCCUPANCIES. THEREFORE SOME  
   3  WATERS APPEAR TO OVERLAP                                            
   3  WITH EACH OTHER OR WITH THE LIGAND AND ARE LISTED AS CLOSE CONTACTS 
   3  IN REMARK 500.                                                      
   4                                                                      
   4 1RGZ COMPLIES WITH FORMAT V. 3.15, 01-DEC-08                         
 100                                                                      
 100 THIS ENTRY HAS BEEN PROCESSED BY RCSB ON 24-NOV-03.                  
 100 THE RCSB ID CODE IS RCSB020738.                                      
 200                                                                      
 200 EXPERIMENTAL DETAILS                                                 
 200  EXPERIMENT TYPE                : X-RAY DIFFRACTION                  
 200  DATE OF DATA COLLECTION        : 24-JUN-02                          
 200  TEMPERATURE           (KELVIN) : 100                                
 200  PH                             : 7.0                                
 200  NUMBER OF CRYSTALS USED        : 1                                  
 200                                                                      
 200  SYNCHROTRON              (Y/N) : Y                                  
 200  RADIATION SOURCE               : CHESS                              
 200  BEAMLINE                       : A1                                 
 200  X-RAY GENERATOR MODEL          : NULL                               
 200  MONOCHROMATIC OR LAUE    (M/L) : M                                  
 200  WAVELENGTH OR RANGE        (A) : 0.9474                             
 200  MONOCHROMATOR                  : NULL                               
 200  OPTICS                         : NULL                               
 200                                                                      
 200  DETECTOR TYPE                  : CCD                                
 200  DETECTOR MANUFACTURER          : ADSC QUANTUM 210                   
 200  INTENSITY-INTEGRATION SOFTWARE : DENZO                              
 200  DATA SCALING SOFTWARE          : SCALEPACK                          
 200                                                                      
 200  NUMBER OF UNIQUE REFLECTIONS   : 64695                              
 200  RESOLUTION RANGE HIGH      (A) : 1.370                              
 200  RESOLUTION RANGE LOW       (A) : 50.000                             
 200  REJECTION CRITERIA  (SIGMA(I)) : 11.100                             
 200                                                                      
 200 OVERALL.                                                             
 200  COMPLETENESS FOR RANGE     (%) : 96.0                               
 200  DATA REDUNDANCY                : 5.000                              
 200  R MERGE                    (I) : NULL                               
 200  R SYM                      (I) : 0.09600                            
 200  <I/SIGMA(I)> FOR THE DATA SET  : 11.1000                            
 200                                                                      
 200 IN THE HIGHEST RESOLUTION SHELL.                                     
 200  HIGHEST RESOLUTION SHELL, RANGE HIGH (A) : 1.37                     
 200  HIGHEST RESOLUTION SHELL, RANGE LOW  (A) : 1.42                     
 200  COMPLETENESS FOR SHELL     (%) : 77.8                               
 200  DATA REDUNDANCY IN SHELL       : 3.20                               
 200  R MERGE FOR SHELL          (I) : NULL                               
 200  R SYM FOR SHELL            (I) : 0.42100                            
 200  <I/SIGMA(I)> FOR SHELL         : 2.700                              
 200                                                                      
 200 DIFFRACTION PROTOCOL: SINGLE WAVELENGTH                              
 200 METHOD USED TO DETERMINE THE STRUCTURE: MOLECULAR REPLACEMENT        
 200 SOFTWARE USED: CNS                                                   
 200 STARTING MODEL: 1GCE                                                 
 200                                                                      
 200 REMARK: NULL                                                         
 280                                                                      
 280 CRYSTAL                                                              
 280 SOLVENT CONTENT, VS   (%): 40.32                                     
 280 MATTHEWS COEFFICIENT, VM (ANGSTROMS**3/DA): 2.06                     
 280                                                                      
 280 CRYSTALLIZATION CONDITIONS: PEG 8000, HEPES, PH 7.0, VAPOR           
 280  DIFFUSION, SITTING DROP, TEMPERATURE 296K                           
 290                                                                      
 290 CRYSTALLOGRAPHIC SYMMETRY                                            
 290 SYMMETRY OPERATORS FOR SPACE GROUP: P 21 21 2                        
 290                                                                      
 290      SYMOP   SYMMETRY                                                
 290     NNNMMM   OPERATOR                                                
 290       1555   X,Y,Z                                                   
 290       2555   -X,-Y,Z                                                 
 290       3555   -X+1/2,Y+1/2,-Z                                         
 290       4555   X+1/2,-Y+1/2,-Z                                         
 290                                                                      
 290     WHERE NNN -> OPERATOR NUMBER                                     
 290           MMM -> TRANSLATION VECTOR                                  
 290                                                                      
 290 CRYSTALLOGRAPHIC SYMMETRY TRANSFORMATIONS                            
 290 THE FOLLOWING TRANSFORMATIONS OPERATE ON THE ATOM/HETATM             
 290 RECORDS IN THIS ENTRY TO PRODUCE CRYSTALLOGRAPHICALLY                
 290 RELATED MOLECULES.                                                   
 290   SMTRY1   1  1.000000  0.000000  0.000000        0.00000            
 290   SMTRY2   1  0.000000  1.000000  0.000000        0.00000            
 290   SMTRY3   1  0.000000  0.000000  1.000000        0.00000            
 290   SMTRY1   2 -1.000000  0.000000  0.000000        0.00000            
 290   SMTRY2   2  0.000000 -1.000000  0.000000        0.00000            
 290   SMTRY3   2  0.000000  0.000000  1.000000        0.00000            
 290   SMTRY1   3 -1.000000  0.000000  0.000000       38.19000            
 290   SMTRY2   3  0.000000  1.000000  0.000000       34.42000            
 290   SMTRY3   3  0.000000  0.000000 -1.000000        0.00000            
 290   SMTRY1   4  1.000000  0.000000  0.000000       38.19000            
 290   SMTRY2   4  0.000000 -1.000000  0.000000       34.42000            
 290   SMTRY3   4  0.000000  0.000000 -1.000000        0.00000            
 290                                                                      
 290 REMARK: NULL                                                         
 300                                                                      
 300 BIOMOLECULE: 1                                                       
 300 SEE REMARK 350 FOR THE AUTHOR PROVIDED AND/OR PROGRAM                
 300 GENERATED ASSEMBLY INFORMATION FOR THE STRUCTURE IN                  
 300 THIS ENTRY. THE REMARK MAY ALSO PROVIDE INFORMATION ON               
 300 BURIED SURFACE AREA.                                                 
 350                                                                      
 350 COORDINATES FOR A COMPLETE MULTIMER REPRESENTING THE KNOWN           
 350 BIOLOGICALLY SIGNIFICANT OLIGOMERIZATION STATE OF THE                
 350 MOLECULE CAN BE GENERATED BY APPLYING BIOMT TRANSFORMATIONS          
 350 GIVEN BELOW.  BOTH NON-CRYSTALLOGRAPHIC AND                          
 350 CRYSTALLOGRAPHIC OPERATIONS ARE GIVEN.                               
 350                                                                      
 350 BIOMOLECULE: 1                                                       
 350 AUTHOR DETERMINED BIOLOGICAL UNIT: MONOMERIC                         
 350 APPLY THE FOLLOWING TO CHAINS: A                                     
 350   BIOMT1   1  1.000000  0.000000  0.000000        0.00000            
 350   BIOMT2   1  0.000000  1.000000  0.000000        0.00000            
 350   BIOMT3   1  0.000000  0.000000  1.000000        0.00000            
 375                                                                      
 375 SPECIAL POSITION                                                     
 375 THE FOLLOWING ATOMS ARE FOUND TO BE WITHIN 0.15 ANGSTROMS            
 375 OF A SYMMETRY RELATED ATOM AND ARE ASSUMED TO BE ON SPECIAL          
 375 POSITIONS.                                                           
 375                                                                      
 375 ATOM RES CSSEQI                                                      
 375      HOH A 507  LIES ON A SPECIAL POSITION.                          
 470                                                                      
 470 MISSING ATOM                                                         
 470 THE FOLLOWING RESIDUES HAVE MISSING ATOMS (M=MODEL NUMBER;           
 470 RES=RESIDUE NAME; C=CHAIN IDENTIFIER; SSEQ=SEQUENCE NUMBER;          
 470 I=INSERTION CODE):                                                   
 470   M RES CSSEQI  ATOMS                                                
 470     LYS A  37    CE   NZ                                             
 470     LYS A  45    CE   NZ                                             
 470     LYS A 183    NZ                                                  
 470     LYS A 193    CG   CD   CE   NZ                                   
 470     GLU A 196    CD   OE1  OE2                                       
 470     LYS A 207    CE   NZ                                             
 470     ARG A 213    NE   CZ   NH1  NH2                                  
 470     LYS A 293    CE   NZ                                             
 470     LYS A 312    CE   NZ                                             
 470     LYS A 335    CE   NZ                                             
 500                                                                      
 500 GEOMETRY AND STEREOCHEMISTRY                                         
 500 SUBTOPIC: COVALENT BOND ANGLES                                       
 500                                                                      
 500 THE STEREOCHEMICAL PARAMETERS OF THE FOLLOWING RESIDUES              
 500 HAVE VALUES WHICH DEVIATE FROM EXPECTED VALUES BY MORE               
 500 THAN 6*RMSD (M=MODEL NUMBER; RES=RESIDUE NAME; C=CHAIN               
 500 IDENTIFIER; SSEQ=SEQUENCE NUMBER; I=INSERTION CODE).                 
 500                                                                      
 500 STANDARD TABLE:                                                      
 500 FORMAT: (10X,I3,1X,A3,1X,A1,I4,A1,3(1X,A4,2X),12X,F5.1)              
 500                                                                      
 500 EXPECTED VALUES PROTEIN: ENGH AND HUBER, 1999                        
 500 EXPECTED VALUES NUCLEIC ACID: CLOWNEY ET AL 1996                     
 500                                                                      
 500  M RES CSSEQI ATM1   ATM2   ATM3                                     
 500    TYR A  92   CG  -  CD2 -  CE2 ANGL. DEV. =  -5.7 DEGREES          
 500    ARG A 133   CD  -  NE  -  CZ  ANGL. DEV. =  11.5 DEGREES          
 500    ARG A 133   NE  -  CZ  -  NH1 ANGL. DEV. =   3.1 DEGREES          
 500    ARG A 133   NE  -  CZ  -  NH2 ANGL. DEV. =  -4.1 DEGREES          
 500    ARG A 177   NE  -  CZ  -  NH2 ANGL. DEV. =   3.5 DEGREES          
 500    TYR A 199   CB  -  CG  -  CD1 ANGL. DEV. =   3.9 DEGREES          
 500    ARG A 204   CD  -  NE  -  CZ  ANGL. DEV. =  23.4 DEGREES          
 500    ARG A 204   NE  -  CZ  -  NH1 ANGL. DEV. =   6.1 DEGREES          
 500    MET A 218   CA  -  CB  -  CG  ANGL. DEV. =  10.6 DEGREES          
 500    MET A 218   CA  -  C   -  O   ANGL. DEV. =  17.4 DEGREES          
 500    ARG A 264   NE  -  CZ  -  NH1 ANGL. DEV. =   4.7 DEGREES          
 500    ARG A 264   NE  -  CZ  -  NH2 ANGL. DEV. =  -6.6 DEGREES          
 500                                                                      
 500 REMARK: NULL                                                         
 500                                                                      
 500 GEOMETRY AND STEREOCHEMISTRY                                         
 500 SUBTOPIC: TORSION ANGLES                                             
 500                                                                      
 500 TORSION ANGLES OUTSIDE THE EXPECTED RAMACHANDRAN REGIONS:            
 500 (M=MODEL NUMBER; RES=RESIDUE NAME; C=CHAIN IDENTIFIER;               
 500 SSEQ=SEQUENCE NUMBER; I=INSERTION CODE).                             
 500                                                                      
 500 STANDARD TABLE:                                                      
 500 FORMAT:(10X,I3,1X,A3,1X,A1,I4,A1,4X,F7.2,3X,F7.2)                    
 500                                                                      
 500 EXPECTED VALUES: GJ KLEYWEGT AND TA JONES (1996). PHI/PSI-           
 500 CHOLOGY: RAMACHANDRAN REVISITED. STRUCTURE 4, 1395 - 1400            
 500                                                                      
 500  M RES CSSEQI        PSI       PHI                                   
 500    VAL A 178      -56.59   -121.50                                   
 500    VAL A 214     -167.28   -108.29                                   
 500    ASN A 344       41.79   -103.55                                   
 500                                                                      
 500 REMARK: NULL                                                         
 525                                                                      
 525 SOLVENT                                                              
 525                                                                      
 525 THE SOLVENT MOLECULES HAVE CHAIN IDENTIFIERS THAT                    
 525 INDICATE THE POLYMER CHAIN WITH WHICH THEY ARE MOST                  
 525 CLOSELY ASSOCIATED. THE REMARK LISTS ALL THE SOLVENT                 
 525 MOLECULES WHICH ARE MORE THAN 5A AWAY FROM THE                       
 525 NEAREST POLYMER CHAIN (M = MODEL NUMBER;                             
 525 RES=RESIDUE NAME; C=CHAIN IDENTIFIER; SSEQ=SEQUENCE                  
 525 NUMBER; I=INSERTION CODE):                                           
 525                                                                      
 525  M RES CSSEQI                                                        
 525    HOH A 639        DISTANCE =  5.08 ANGSTROMS                       
 525    HOH A 804        DISTANCE =  5.11 ANGSTROMS                       
 525    HOH A 896        DISTANCE =  5.23 ANGSTROMS                       
 610                                                                      
 610 MISSING HETEROATOM                                                   
 610 THE FOLLOWING RESIDUES HAVE MISSING ATOMS (M=MODEL NUMBER;           
 610 RES=RESIDUE NAME; C=CHAIN IDENTIFIER; SSEQ=SEQUENCE NUMBER;          
 610 I=INSERTION CODE):                                                   
 610   M RES C SSEQI                                                      
 610     PTX A  400                                                       
 800                                                                      
 800 SITE                                                                 
 800 SITE_IDENTIFIER: AC1                                                 
 800 EVIDENCE_CODE: SOFTWARE                                              
 800 SITE_DESCRIPTION: BINDING SITE FOR RESIDUE PTX A 400                 
 800                                                                      
 800 SITE_IDENTIFIER: AC2                                                 
 800 EVIDENCE_CODE: SOFTWARE                                              
 800 SITE_DESCRIPTION: BINDING SITE FOR RESIDUE GOL A 410                 
 800                                                                      
 800 SITE_IDENTIFIER: AC3                                                 
 800 EVIDENCE_CODE: SOFTWARE                                              
 800 SITE_DESCRIPTION: BINDING SITE FOR RESIDUE GOL A 411                 
 900                                                                      
 900 RELATED ENTRIES                                                      
 900 RELATED ID: 1GCE   RELATED DB: PDB                                   
 900 STRUCTURE OF THE EXTENDED-SPECTRUM CLASS C BETA-LACTAMASE            
 900 OF ENTEROBACTER CLOACAE GC1                                          

>  <DBREF>
 1RGZ A    2   364  UNP    P05364   AMPC_ENTCL      22    384             

>  <SEQRES>
   1 A  363  PRO VAL SER GLU LYS GLN LEU ALA GLU VAL VAL ALA ASN          
   2 A  363  THR VAL THR PRO LEU MET LYS ALA GLN SER VAL PRO GLY          
   3 A  363  MET ALA VAL ALA VAL ILE TYR GLN GLY LYS PRO HIS TYR          
   4 A  363  TYR THR PHE GLY LYS ALA ASP ILE ALA ALA ASN LYS PRO          
   5 A  363  VAL THR PRO GLN THR LEU PHE GLU LEU GLY SER ILE SER          
   6 A  363  LYS THR PHE THR GLY VAL LEU GLY GLY ASP ALA ILE ALA          
   7 A  363  ARG GLY GLU ILE SER LEU ASP ASP PRO VAL THR ARG TYR          
   8 A  363  TRP PRO GLN LEU THR GLY LYS GLN TRP GLN GLY ILE ARG          
   9 A  363  MET LEU ASP LEU ALA THR TYR THR ALA GLY GLY LEU PRO          
  10 A  363  LEU GLN VAL PRO ASP GLU VAL THR ASP ASN ALA SER LEU          
  11 A  363  LEU ARG PHE TYR GLN ASN TRP GLN PRO GLN TRP LYS PRO          
  12 A  363  GLY THR THR ARG LEU TYR ALA ASN ALA SER ILE GLY LEU          
  13 A  363  PHE GLY ALA LEU ALA VAL LYS PRO SER GLY MET PRO TYR          
  14 A  363  GLU GLN ALA MET THR THR ARG VAL LEU LYS PRO LEU LYS          
  15 A  363  LEU ASP HIS THR TRP ILE ASN VAL PRO LYS ALA GLU GLU          
  16 A  363  ALA HIS TYR ALA TRP GLY TYR ARG ASP GLY LYS ALA VAL          
  17 A  363  ARG ALA VAL ARG VAL SER PRO GLY MET LEU ASP ALA GLN          
  18 A  363  ALA TYR GLY VAL LYS THR ASN VAL GLN ASP MET ALA ASN          
  19 A  363  TRP VAL MET ALA ASN MET ALA PRO GLU ASN VAL ALA ASP          
  20 A  363  ALA SER LEU LYS GLN GLY ILE ALA LEU ALA GLN SER ARG          
  21 A  363  TYR TRP ARG ILE GLY SER MET TYR GLN GLY LEU GLY TRP          
  22 A  363  GLU MET LEU ASN TRP PRO VAL GLU ALA ASN THR VAL VAL          
  23 A  363  GLU GLY SER ASP SER LYS VAL ALA LEU ALA PRO LEU PRO          
  24 A  363  VAL ALA GLU VAL ASN PRO PRO ALA PRO PRO VAL LYS ALA          
  25 A  363  SER TRP VAL HIS LYS THR GLY SER THR GLY GLY PHE GLY          
  26 A  363  SER TYR VAL ALA PHE ILE PRO GLU LYS GLN ILE GLY ILE          
  27 A  363  VAL MET LEU ALA ASN THR SER TYR PRO ASN PRO ALA ARG          
  28 A  363  VAL GLU ALA ALA TYR HIS ILE LEU GLU ALA LEU GLN              

>  <HET>
 PTX  A 400      17                                                       
 GOL  A 410       6                                                       
 GOL  A 411       6                                                       

>  <HETNAM>
     PTX {[(2E)-2-(2-AMINO-1,3-THIAZOL-4-YL)-2-(METHOXYIMINO)             
   2 PTX  ETHANOYL]AMINO}METHYLPHOSPHONIC ACID                            
     GOL GLYCEROL                                                         

>  <HETSYN>
     GOL GLYCERIN; PROPANE-1,2,3-TRIOL                                    

>  <FORMUL>
   2  PTX    C7 H11 N4 O5 P S                                             
   3  GOL    2(C3 H8 O3)                                                  
   5  HOH   *398(H2 O)                                                    

>  <HELIX>
   1   1 SER A    4  GLN A   23  1                                  20    
   2   2 ILE A   65  ARG A   80  1                                  16    
   3   3 PRO A   88  TRP A   93  1                                   6    
   4   4 GLY A   98  GLN A  102  5                                   5    
   5   5 ARG A  105  THR A  111  1                                   7    
   6   6 ASP A  127  TRP A  138  1                                  12    
   7   7 ALA A  151  VAL A  163  1                                  13    
   8   8 LYS A  164  GLY A  167  5                                   4    
   9   9 PRO A  169  VAL A  178  1                                  10    
  10  10 PRO A  192  TYR A  199  5                                   8    
  11  11 LEU A  219  GLY A  225  1                                   7    
  12  12 ASN A  229  ALA A  242  1                                  14    
  13  13 PRO A  243  VAL A  246  5                                   4    
  14  14 ASP A  248  GLN A  259  1                                  12    
  15  15 GLU A  282  ASP A  291  1                                  10    
  16  16 ASP A  291  LEU A  296  1                                   6    
  17  17 PRO A  333  GLN A  336  5                                   4    
  18  18 PRO A  348  LEU A  363  1                                  16    

>  <SHEET>
   1   A10 LYS A  52  PRO A  53  0                                        
   2   A10 LYS A  37  ASP A  47 -1  N  ASP A  47   O  LYS A  52           
   3   A10 GLY A  27  TYR A  34 -1  N  VAL A  30   O  TYR A  41           
   4   A10 ILE A 337  ALA A 343 -1  O  LEU A 342   N  ALA A  29           
   5   A10 GLY A 326  ILE A 332 -1  N  ALA A 330   O  ILE A 339           
   6   A10 SER A 314  SER A 321 -1  N  VAL A 316   O  PHE A 331           
   7   A10 GLU A 275  ASN A 278 -1  N  LEU A 277   O  TRP A 315           
   8   A10 MET A 268  GLN A 270 -1  N  TYR A 269   O  MET A 276           
   9   A10 ARG A 261  ILE A 265 -1  N  ILE A 265   O  MET A 268           
  10   A10 ALA A 302  ALA A 308 -1  O  ALA A 302   N  ARG A 264           
   1   B 3 PHE A  60  GLU A  61  0                                        
   2   B 3 LYS A 227  THR A 228 -1  O  THR A 228   N  PHE A  60           
   3   B 3 THR A 187  TRP A 188 -1  N  TRP A 188   O  LYS A 227           
   1   C 2 THR A 147  ARG A 148  0                                        
   2   C 2 LEU A 299  PRO A 300 -1  O  LEU A 299   N  ARG A 148           
   1   D 2 GLY A 202  ARG A 204  0                                        
   2   D 2 LYS A 207  VAL A 209 -1  O  VAL A 209   N  GLY A 202           

>  <LINK>
       OG  SER A  64                 P8  PTX A 400     1555   1555  1.61  
       CB BTYR A 224                 C18 PTX A 400     1555   1555  1.69  
       CB BTYR A 224                 N16 PTX A 400     1555   1555  1.86  
       CD1BTYR A 224                 N16 PTX A 400     1555   1555  1.99  
       CG BTYR A 224                 O17 PTX A 400     1555   1555  1.73  
       CA BTYR A 224                 O17 PTX A 400     1555   1555  1.62  
       CA BTYR A 224                 C18 PTX A 400     1555   1555  1.13  
       O  BTYR A 224                 C18 PTX A 400     1555   1555  1.31  
       CG BTYR A 224                 N16 PTX A 400     1555   1555  1.98  

>  <CISPEP>
   1 TRP A  279    PRO A  280          0         0.18                     
   2 ASN A  305    PRO A  306          0        -7.67                     

>  <SITE>
   1 AC1 17 GLY A  63  SER A  64  TYR A 150  ASN A 152                    
   2 AC1 17 ALA A 223  TYR A 224  GLY A 225  GLY A 320                    
   3 AC1 17 SER A 321  THR A 322  GLY A 323  HOH A 501                    
   4 AC1 17 HOH A 503  HOH A 504  HOH A 505  HOH A 513                    
   5 AC1 17 HOH A 797                                                     
   1 AC2  8 PRO A 181  LEU A 182  ASN A 245  VAL A 246                    
   2 AC2  8 ALA A 247  ASP A 248  HOH A 718  HOH A 855                    
   1 AC3 10 GLU A 275  GLY A 289  SER A 290  HIS A 317                    
   2 AC3 10 LYS A 318  THR A 319  HOH A 527  HOH A 557                    
   3 AC3 10 HOH A 581  HOH A 616                                          

>  <ORIGX1>
      1.000000  0.000000  0.000000        0.00000                         

>  <ORIGX2>
      0.000000  1.000000  0.000000        0.00000                         

>  <ORIGX3>
      0.000000  0.000000  1.000000        0.00000                         

>  <SCALE1>
      0.013092  0.000000  0.000000        0.00000                         

>  <SCALE2>
      0.000000  0.014526  0.000000        0.00000                         

>  <SCALE3>
      0.000000  0.000000  0.016131        0.00000                         

>  <ANISOU>
  466  N   SER A  64     1058   1359   1034     87     58   -293       N  
  467  CA  SER A  64     1393   1145   1264    186    412     23       C  
  468  C   SER A  64     1474   1005   1214    -91     -1   -110       C  
  469  O   SER A  64     1118    962   1473   -122     83   -255       O  
  470  CB  SER A  64     1534   1470   1555    -18    597     72       C  
  471  OG  SER A  64     2124   1559   1658   -624     98    204       O  
 2877  P8  PTX A 400     2523   1389   2038   -457    825   -123       P  
 2878  O81 PTX A 400     3041   1566   2157     -2    988   -219       O  
 2879  O82 PTX A 400     2536   1781   1767   -968    559    155       O  
 2880  C7  PTX A 400     3562   1709   2362    454    566   -338       C  
 2881  N10 PTX A 400     3629   3029   2810    927    641   -250       N  
 2882  C11 PTX A 400     3544   4626   3298    -45    667     27       C  
 2883  O12 PTX A 400     4124   7921   4230  -2865    914  -2786       O  
 2884  C13 PTX A 400     3577   3606   4320    472   1045   1642       C  
 2885  N16 PTX A 400     3614   4112   5125   -388    446   1031       N  
 2886  O17 PTX A 400     3472   3996   3892  -1092    537    324       O  
 2887  C18 PTX A 400     2512   4205   3103   -318   -149   1576       C  
 2888  C14 PTX A 400     4642   3790   3971    711   1215   1444       C  
 2889  C15 PTX A 400     4898   3375   3994    995   1214   1830       C  
 2890  S16 PTX A 400     4713   3849   4507    917   1802   1099       S  
 2891  C17 PTX A 400     4881   3719   3547    720   1286   1581       C  
 2892  N18 PTX A 400     3757   2976   3585   -256    295    491       N  
 2893  N19 PTX A 400     4801   3689   3399   1073   1062   1843       N  

>  <MASTER>
      301    0    3   18   17    0   10    6 3188    1   36   28          

$$$$
