start_structures/Ligand_Substrate/Ligand_Complex_Stripped/QBZ_6Z7K.pdb
 OpenBabel08222315203D

 41 41  0  0  1  0  0  0  0  0999 V2000
   -3.8190   -4.7470   14.8600 N   0  0  0  0  0  0  0  0  0  0  0  0
   -5.0810   -4.9500   15.5740 C   0  0  2  0  0  0  0  0  0  0  0  0
   -5.2500   -6.3450   16.1450 C   0  0  0  0  0  0  0  0  0  0  0  0
   -6.2100   -6.5690   16.8910 O   0  0  0  0  0  0  0  0  0  0  0  0
   -6.2960   -4.6670   14.6950 C   0  0  0  0  0  0  0  0  0  0  0  0
   -6.4140   -3.2670   14.4450 O   0  0  0  0  0  0  0  0  0  0  0  0
   -3.8970   -4.6570   14.0090 H   0  0  0  0  0  0  0  0  0  0  0  0
   -5.1110   -4.3280   16.3180 H   0  0  0  0  0  0  0  0  0  0  0  0
   -6.2120   -5.1700   13.8660 H   0  0  0  0  0  0  0  0  0  0  0  0
   -7.0900   -4.9600   15.1690 H   0  0  0  0  0  0  0  0  0  0  0  0
   -5.9840    2.7870   10.1740 C   0  0  0  0  0  0  0  0  0  0  0  0
    0.1040    2.8000    9.9450 C   0  0  0  0  0  0  0  0  0  0  0  0
   -0.3170    3.4410   11.0770 N   0  0  0  0  0  0  0  0  0  0  0  0
   -1.5850    3.5940   11.0130 N   0  0  0  0  0  0  0  0  0  0  0  0
   -5.7510   -2.8770   13.3070 C   0  0  0  0  0  0  0  0  0  0  0  0
   -6.0460   -1.4110   13.0440 C   0  0  0  0  0  0  0  0  0  0  0  0
   -5.1220   -0.7960   12.0290 C   0  0  0  0  0  0  0  0  0  0  0  0
   -4.3170    1.0420   10.7650 C   0  0  1  0  0  0  0  0  0  0  0  0
   -4.5110    0.2860    9.3970 C   0  0  0  0  0  0  0  0  0  0  0  0
   -4.5680    2.5350   10.5680 C   0  0  1  0  0  0  0  0  0  0  0  0
   -3.6100    3.0730    9.4810 C   0  0  0  0  0  0  0  0  0  0  0  0
   -1.0330    2.5230    9.1710 C   0  0  0  0  0  0  0  0  0  0  0  0
   -5.2380    0.4610   11.7480 N   0  0  0  0  0  0  0  0  0  0  0  0
   -2.0870    3.0760    9.8900 N   0  0  0  0  0  0  0  0  0  0  0  0
   -4.9720   -3.5500   12.6790 O   0  0  0  0  0  0  0  0  0  0  0  0
   -3.5220    0.3250    8.6330 O   0  5  0  0  0  0  0  0  0  0  0  0
   -5.6120   -0.2290    9.1590 O   0  0  0  0  0  0  0  0  0  0  0  0
   -5.4790    3.0280   12.9180 O   0  5  0  0  0  0  0  0  0  0  0  0
   -4.2130    4.8080   11.8130 O   0  0  0  0  0  0  0  0  0  0  0  0
   -4.2630    3.3530   12.1780 S   0  0  2  0  0  0  0  0  0  0  0  0
   -6.1900    2.4380    9.2930 H   0  0  0  0  0  0  0  0  0  0  0  0
   -6.2140    3.7290   10.1600 H   0  0  0  0  0  0  0  0  0  0  0  0
   -6.6280    2.3860   10.7780 H   0  0  0  0  0  0  0  0  0  0  0  0
    0.9950    2.5790    9.7960 H   0  0  0  0  0  0  0  0  0  0  0  0
   -6.9680   -1.3180   12.7580 H   0  0  0  0  0  0  0  0  0  0  0  0
   -5.9960   -0.9240   13.8810 H   0  0  0  0  0  0  0  0  0  0  0  0
   -4.5080   -1.3910   11.6690 H   0  0  0  0  0  0  0  0  0  0  0  0
   -3.3970    0.9060   11.0410 H   0  0  0  0  0  0  0  0  0  0  0  0
   -3.6730    2.5720    8.6570 H   0  0  0  0  0  0  0  0  0  0  0  0
   -3.8040    3.9960    9.2540 H   0  0  0  0  0  0  0  0  0  0  0  0
   -1.1190    2.1090    8.3430 H   0  0  0  0  0  0  0  0  0  0  0  0
  1  2  1  0  0  0  0
  2  3  1  0  0  0  0
  2  8  1  1  0  0  0
  3  4  2  0  0  0  0
  5 10  1  0  0  0  0
  5  2  1  0  0  0  0
  6 15  1  0  0  0  0
  6  5  1  0  0  0  0
  7  1  1  0  0  0  0
  9  5  1  0  0  0  0
 11 31  1  0  0  0  0
 11 32  1  0  0  0  0
 11 33  1  0  0  0  0
 12 13  1  0  0  0  0
 12 22  2  0  0  0  0
 12 34  1  0  0  0  0
 13 14  2  0  0  0  0
 14 24  1  0  0  0  0
 15 16  1  0  0  0  0
 15 25  2  0  0  0  0
 16 17  1  0  0  0  0
 16 35  1  0  0  0  0
 16 36  1  0  0  0  0
 17 23  2  0  0  0  0
 17 37  1  0  0  0  0
 18 19  1  0  0  0  0
 18 20  1  0  0  0  0
 18 23  1  0  0  0  0
 18 38  1  1  0  0  0
 19 26  2  0  0  0  0
 19 27  1  0  0  0  0
 20 11  1  6  0  0  0
 20 21  1  0  0  0  0
 20 30  1  0  0  0  0
 21 24  1  0  0  0  0
 21 39  1  0  0  0  0
 21 40  1  0  0  0  0
 22 24  1  0  0  0  0
 22 41  1  0  0  0  0
 29 30  1  0  0  0  0
 30 28  1  1  0  0  0
M  CHG  2  26  -1  28  -1
M  END
>  <HEADER>
    ANTIMICROBIAL PROTEIN                   31-MAY-20   6Z7K              

>  <TITLE>
    CRYSTAL STRUCTURE OF CTX-M-15 IN COMPLEX WITH THE IMINE FORM OF       
   2 HYDROLYSED TAZOBACTAM                                                

>  <COMPND>
    MOL_ID: 1;                                                            
   2 MOLECULE: BETA-LACTAMASE;                                            
   3 CHAIN: A;                                                            
   4 EC: 3.5.2.6;                                                         
   5 ENGINEERED: YES                                                      

>  <SOURCE>
    MOL_ID: 1;                                                            
   2 ORGANISM_SCIENTIFIC: KLEBSIELLA PNEUMONIAE;                          
   3 ORGANISM_TAXID: 573;                                                 
   4 GENE: BLACTX-M-15;                                                   
   5 EXPRESSION_SYSTEM: ESCHERICHIA COLI;                                 
   6 EXPRESSION_SYSTEM_TAXID: 562;                                        
   7 EXPRESSION_SYSTEM_VARIANT: SOLUBL21;                                 
   8 EXPRESSION_SYSTEM_PLASMID: POPIN-F                                   

>  <KEYWDS>
    BETA-LACTAMASE, INHIBITOR, ANTIBIOTIC RESISTANCE, ANTIMICROBIAL       
   2 PROTEIN                                                              

>  <EXPDTA>
    X-RAY DIFFRACTION                                                     

>  <AUTHOR>
    C.L.TOOKE,P.HINCHLIFFE,J.SPENCER                                      

>  <REVDAT>
   2   01-JUN-22 6Z7K    1       JRNL                                     
   1   09-JUN-21 6Z7K    0                                                

>  <JRNL>
      AUTH   P.HINCHLIFFE,C.L.TOOKE,C.R.BETHEL,B.WANG,C.ARTHUR,           
      AUTH 2 K.J.HEESOM,S.SHAPIRO,D.M.SCHLATZER,K.M.PAPP-WALLACE,         
      AUTH 3 R.A.BONOMO,J.SPENCER                                         
      TITL   PENICILLANIC ACID SULFONES INACTIVATE THE EXTENDED-SPECTRUM  
      TITL 2 BETA-LACTAMASE CTX-M-15 THROUGH FORMATION OF A SERINE-LYSINE 
      TITL 3 CROSS-LINK: AN ALTERNATIVE MECHANISM OF BETA-LACTAMASE       
      TITL 4 INHIBITION.                                                  
      REF    MBIO                                 79321 2022              
      REFN                   ESSN 2150-7511                               
      PMID   35612361                                                     
      DOI    10.1128/MBIO.01793-21                                        

>  <REMARK>
   2                                                                      
   2 RESOLUTION.    1.10 ANGSTROMS.                                       
   3                                                                      
   3 REFINEMENT.                                                          
   3   PROGRAM     : PHENIX 1.17.1_3660                                   
   3   AUTHORS     : PAUL ADAMS,PAVEL AFONINE,VINCENT CHEN,IAN            
   3               : DAVIS,KRESHNA GOPAL,RALF GROSSE-KUNSTLEVE,           
   3               : LI-WEI HUNG,ROBERT IMMORMINO,TOM IOERGER,            
   3               : AIRLIE MCCOY,ERIK MCKEE,NIGEL MORIARTY,              
   3               : REETAL PAI,RANDY READ,JANE RICHARDSON,               
   3               : DAVID RICHARDSON,TOD ROMO,JIM SACCHETTINI,           
   3               : NICHOLAS SAUTER,JACOB SMITH,LAURENT                  
   3               : STORONI,TOM TERWILLIGER,PETER ZWART                  
   3                                                                      
   3    REFINEMENT TARGET : GEOSTD + MONOMER LIBRARY + CDL V1.2           
   3                                                                      
   3  DATA USED IN REFINEMENT.                                            
   3   RESOLUTION RANGE HIGH (ANGSTROMS) : 1.10                           
   3   RESOLUTION RANGE LOW  (ANGSTROMS) : 58.88                          
   3   MIN(FOBS/SIGMA_FOBS)              : 1.340                          
   3   COMPLETENESS FOR RANGE        (%) : 100.0                          
   3   NUMBER OF REFLECTIONS             : 98082                          
   3                                                                      
   3  FIT TO DATA USED IN REFINEMENT.                                     
   3   R VALUE     (WORKING + TEST SET) : 0.130                           
   3   R VALUE            (WORKING SET) : 0.129                           
   3   FREE R VALUE                     : 0.144                           
   3   FREE R VALUE TEST SET SIZE   (%) : 5.100                           
   3   FREE R VALUE TEST SET COUNT      : 5001                            
   3                                                                      
   3  FIT TO DATA USED IN REFINEMENT (IN BINS).                           
   3   BIN  RESOLUTION RANGE  COMPL.    NWORK NFREE   RWORK  RFREE        
   3     1 58.8800 -  3.4200    1.00     3387   159  0.1581 0.1501        
   3     2  3.4200 -  2.7100    1.00     3210   174  0.1309 0.1455        
   3     3  2.7100 -  2.3700    1.00     3174   160  0.1152 0.1283        
   3     4  2.3700 -  2.1500    1.00     3150   172  0.1071 0.1305        
   3     5  2.1500 -  2.0000    1.00     3117   180  0.1034 0.1306        
   3     6  2.0000 -  1.8800    1.00     3118   176  0.1018 0.1174        
   3     7  1.8800 -  1.7900    1.00     3104   178  0.1053 0.1135        
   3     8  1.7900 -  1.7100    1.00     3135   163  0.1072 0.1176        
   3     9  1.7100 -  1.6400    1.00     3107   163  0.1066 0.1217        
   3    10  1.6400 -  1.5900    1.00     3098   162  0.1071 0.1413        
   3    11  1.5900 -  1.5400    1.00     3102   152  0.1085 0.1235        
   3    12  1.5400 -  1.4900    1.00     3053   204  0.1143 0.1430        
   3    13  1.4900 -  1.4500    1.00     3092   158  0.1136 0.1348        
   3    14  1.4500 -  1.4200    1.00     3058   165  0.1197 0.1472        
   3    15  1.4200 -  1.3900    1.00     3118   148  0.1257 0.1501        
   3    16  1.3900 -  1.3600    1.00     3085   161  0.1321 0.1555        
   3    17  1.3600 -  1.3300    1.00     3095   175  0.1322 0.1640        
   3    18  1.3300 -  1.3000    1.00     3069   168  0.1356 0.1564        
   3    19  1.3000 -  1.2800    1.00     3059   181  0.1408 0.1636        
   3    20  1.2800 -  1.2600    1.00     3093   166  0.1408 0.1537        
   3    21  1.2600 -  1.2400    1.00     3047   174  0.1467 0.1860        
   3    22  1.2400 -  1.2200    1.00     3073   150  0.1535 0.1756        
   3    23  1.2200 -  1.2000    1.00     3085   144  0.1571 0.1987        
   3    24  1.2000 -  1.1800    1.00     3109   163  0.1632 0.1801        
   3    25  1.1800 -  1.1700    1.00     3044   173  0.1690 0.1869        
   3    26  1.1700 -  1.1500    1.00     3071   154  0.1776 0.1924        
   3    27  1.1500 -  1.1400    1.00     3051   161  0.1818 0.1753        
   3    28  1.1400 -  1.1300    1.00     3084   172  0.1911 0.2117        
   3    29  1.1300 -  1.1100    1.00     3008   195  0.2014 0.2277        
   3    30  1.1100 -  1.1000    1.00     3085   150  0.2272 0.2443        
   3                                                                      
   3  BULK SOLVENT MODELLING.                                             
   3   METHOD USED        : FLAT BULK SOLVENT MODEL                       
   3   SOLVENT RADIUS     : 1.11                                          
   3   SHRINKAGE RADIUS   : 0.90                                          
   3   K_SOL              : NULL                                          
   3   B_SOL              : NULL                                          
   3                                                                      
   3  ERROR ESTIMATES.                                                    
   3   COORDINATE ERROR (MAXIMUM-LIKELIHOOD BASED)     : 0.086            
   3   PHASE ERROR (DEGREES, MAXIMUM-LIKELIHOOD BASED) : 13.264           
   3                                                                      
   3  B VALUES.                                                           
   3   FROM WILSON PLOT           (A**2) : 10.35                          
   3   MEAN B VALUE      (OVERALL, A**2) : 16.13                          
   3   OVERALL ANISOTROPIC B VALUE.                                       
   3    B11 (A**2) : NULL                                                 
   3    B22 (A**2) : NULL                                                 
   3    B33 (A**2) : NULL                                                 
   3    B12 (A**2) : NULL                                                 
   3    B13 (A**2) : NULL                                                 
   3    B23 (A**2) : NULL                                                 
   3                                                                      
   3  TWINNING INFORMATION.                                               
   3   FRACTION: NULL                                                     
   3   OPERATOR: NULL                                                     
   3                                                                      
   3  DEVIATIONS FROM IDEAL VALUES.                                       
   3                 RMSD          COUNT                                  
   3   BOND      :  0.008           2113                                  
   3   ANGLE     :  1.076           2884                                  
   3   CHIRALITY :  0.084            333                                  
   3   PLANARITY :  0.008            383                                  
   3   DIHEDRAL  : 18.107            791                                  
   3                                                                      
   3  TLS DETAILS                                                         
   3   NUMBER OF TLS GROUPS  : NULL                                       
   3                                                                      
   3  NCS DETAILS                                                         
   3   NUMBER OF NCS GROUPS : NULL                                        
   3                                                                      
   3  OTHER REFINEMENT REMARKS: NULL                                      
   4                                                                      
   4 6Z7K COMPLIES WITH FORMAT V. 3.30, 13-JUL-11                         
 100                                                                      
 100 THIS ENTRY HAS BEEN PROCESSED BY PDBE ON 01-JUN-20.                  
 100 THE DEPOSITION ID IS D_1292109033.                                   
 200                                                                      
 200 EXPERIMENTAL DETAILS                                                 
 200  EXPERIMENT TYPE                : X-RAY DIFFRACTION                  
 200  DATE OF DATA COLLECTION        : 05-OCT-17                          
 200  TEMPERATURE           (KELVIN) : 100                                
 200  PH                             : NULL                               
 200  NUMBER OF CRYSTALS USED        : 1                                  
 200                                                                      
 200  SYNCHROTRON              (Y/N) : Y                                  
 200  RADIATION SOURCE               : DIAMOND                            
 200  BEAMLINE                       : I03                                
 200  X-RAY GENERATOR MODEL          : NULL                               
 200  MONOCHROMATIC OR LAUE    (M/L) : M                                  
 200  WAVELENGTH OR RANGE        (A) : 0.82                               
 200  MONOCHROMATOR                  : NULL                               
 200  OPTICS                         : NULL                               
 200                                                                      
 200  DETECTOR TYPE                  : PIXEL                              
 200  DETECTOR MANUFACTURER          : DECTRIS PILATUS3 6M                
 200  INTENSITY-INTEGRATION SOFTWARE : XDS                                
 200  DATA SCALING SOFTWARE          : AIMLESS                            
 200                                                                      
 200  NUMBER OF UNIQUE REFLECTIONS   : 98191                              
 200  RESOLUTION RANGE HIGH      (A) : 1.100                              
 200  RESOLUTION RANGE LOW       (A) : 58.880                             
 200  REJECTION CRITERIA  (SIGMA(I)) : NULL                               
 200                                                                      
 200 OVERALL.                                                             
 200  COMPLETENESS FOR RANGE     (%) : 100.0                              
 200  DATA REDUNDANCY                : 12.80                              
 200  R MERGE                    (I) : NULL                               
 200  R SYM                      (I) : NULL                               
 200  <I/SIGMA(I)> FOR THE DATA SET  : 12.9000                            
 200                                                                      
 200 IN THE HIGHEST RESOLUTION SHELL.                                     
 200  HIGHEST RESOLUTION SHELL, RANGE HIGH (A) : 1.10                     
 200  HIGHEST RESOLUTION SHELL, RANGE LOW  (A) : 1.12                     
 200  COMPLETENESS FOR SHELL     (%) : NULL                               
 200  DATA REDUNDANCY IN SHELL       : NULL                               
 200  R MERGE FOR SHELL          (I) : NULL                               
 200  R SYM FOR SHELL            (I) : NULL                               
 200  <I/SIGMA(I)> FOR SHELL         : 1.900                              
 200                                                                      
 200 DIFFRACTION PROTOCOL: SINGLE WAVELENGTH                              
 200 METHOD USED TO DETERMINE THE STRUCTURE: MOLECULAR REPLACEMENT        
 200 SOFTWARE USED: PHASER                                                
 200 STARTING MODEL: 6QW8                                                 
 200                                                                      
 200 REMARK: NULL                                                         
 280                                                                      
 280 CRYSTAL                                                              
 280 SOLVENT CONTENT, VS   (%): 41.77                                     
 280 MATTHEWS COEFFICIENT, VM (ANGSTROMS**3/DA): 2.11                     
 280                                                                      
 280 CRYSTALLIZATION CONDITIONS: 2.0 M AMMONIUM SULPHATE, 0.1 M TRIS      
 280  8.0, VAPOR DIFFUSION, SITTING DROP, TEMPERATURE 292.15K             
 290                                                                      
 290 CRYSTALLOGRAPHIC SYMMETRY                                            
 290 SYMMETRY OPERATORS FOR SPACE GROUP: P 21 21 21                       
 290                                                                      
 290      SYMOP   SYMMETRY                                                
 290     NNNMMM   OPERATOR                                                
 290       1555   X,Y,Z                                                   
 290       2555   -X+1/2,-Y,Z+1/2                                         
 290       3555   -X,Y+1/2,-Z+1/2                                         
 290       4555   X+1/2,-Y+1/2,-Z                                         
 290                                                                      
 290     WHERE NNN -> OPERATOR NUMBER                                     
 290           MMM -> TRANSLATION VECTOR                                  
 290                                                                      
 290 CRYSTALLOGRAPHIC SYMMETRY TRANSFORMATIONS                            
 290 THE FOLLOWING TRANSFORMATIONS OPERATE ON THE ATOM/HETATM             
 290 RECORDS IN THIS ENTRY TO PRODUCE CRYSTALLOGRAPHICALLY                
 290 RELATED MOLECULES.                                                   
 290   SMTRY1   1  1.000000  0.000000  0.000000        0.00000            
 290   SMTRY2   1  0.000000  1.000000  0.000000        0.00000            
 290   SMTRY3   1  0.000000  0.000000  1.000000        0.00000            
 290   SMTRY1   2 -1.000000  0.000000  0.000000       22.34650            
 290   SMTRY2   2  0.000000 -1.000000  0.000000        0.00000            
 290   SMTRY3   2  0.000000  0.000000  1.000000       58.87650            
 290   SMTRY1   3 -1.000000  0.000000  0.000000        0.00000            
 290   SMTRY2   3  0.000000  1.000000  0.000000       22.71300            
 290   SMTRY3   3  0.000000  0.000000 -1.000000       58.87650            
 290   SMTRY1   4  1.000000  0.000000  0.000000       22.34650            
 290   SMTRY2   4  0.000000 -1.000000  0.000000       22.71300            
 290   SMTRY3   4  0.000000  0.000000 -1.000000        0.00000            
 290                                                                      
 290 REMARK: NULL                                                         
 300                                                                      
 300 BIOMOLECULE: 1                                                       
 300 SEE REMARK 350 FOR THE AUTHOR PROVIDED AND/OR PROGRAM                
 300 GENERATED ASSEMBLY INFORMATION FOR THE STRUCTURE IN                  
 300 THIS ENTRY. THE REMARK MAY ALSO PROVIDE INFORMATION ON               
 300 BURIED SURFACE AREA.                                                 
 350                                                                      
 350 COORDINATES FOR A COMPLETE MULTIMER REPRESENTING THE KNOWN           
 350 BIOLOGICALLY SIGNIFICANT OLIGOMERIZATION STATE OF THE                
 350 MOLECULE CAN BE GENERATED BY APPLYING BIOMT TRANSFORMATIONS          
 350 GIVEN BELOW.  BOTH NON-CRYSTALLOGRAPHIC AND                          
 350 CRYSTALLOGRAPHIC OPERATIONS ARE GIVEN.                               
 350                                                                      
 350 BIOMOLECULE: 1                                                       
 350 AUTHOR DETERMINED BIOLOGICAL UNIT: MONOMERIC                         
 350 SOFTWARE DETERMINED QUATERNARY STRUCTURE: MONOMERIC                  
 350 SOFTWARE USED: PISA                                                  
 350 TOTAL BURIED SURFACE AREA: 320 ANGSTROM**2                           
 350 SURFACE AREA OF THE COMPLEX: 11080 ANGSTROM**2                       
 350 CHANGE IN SOLVENT FREE ENERGY: -23.0 KCAL/MOL                        
 350 APPLY THE FOLLOWING TO CHAINS: A                                     
 350   BIOMT1   1  1.000000  0.000000  0.000000        0.00000            
 350   BIOMT2   1  0.000000  1.000000  0.000000        0.00000            
 350   BIOMT3   1  0.000000  0.000000  1.000000        0.00000            
 465                                                                      
 465 MISSING RESIDUES                                                     
 465 THE FOLLOWING RESIDUES WERE NOT LOCATED IN THE                       
 465 EXPERIMENT. (M=MODEL NUMBER; RES=RESIDUE NAME; C=CHAIN               
 465 IDENTIFIER; SSSEQ=SEQUENCE NUMBER; I=INSERTION CODE.)                
 465                                                                      
 465   M RES C SSSEQI                                                     
 465     GLY A    24                                                      
 465     PRO A    25                                                      
 465     GLN A    26                                                      
 500                                                                      
 500 GEOMETRY AND STEREOCHEMISTRY                                         
 500 SUBTOPIC: CLOSE CONTACTS IN SAME ASYMMETRIC UNIT                     
 500                                                                      
 500 THE FOLLOWING ATOMS ARE IN CLOSE CONTACT.                            
 500                                                                      
 500  ATM1  RES C  SSEQI   ATM2  RES C  SSEQI           DISTANCE          
 500   HH   TYR A   105     O    HOH A   408              1.58            
 500  HH21  ARG A   161     OD2  ASP A   163              1.60            
 500   O    LEU A   102     O    HOH A   403              1.80            
 500   O    HOH A   548     O    HOH A   583              1.98            
 500   O    HOH A   598     O    HOH A   618              2.07            
 500   O    HOH A   441     O    HOH A   534              2.09            
 500   O    HOH A   423     O    HOH A   633              2.11            
 500   O    HOH A   579     O    HOH A   646              2.11            
 500   OE2  GLU A   110     O    HOH A   404              2.12            
 500   OG1  THR A   216     O    HOH A   405              2.12            
 500   O    HOH A   559     O    HOH A   625              2.13            
 500   O    HOH A   475     O    HOH A   680              2.14            
 500   O    HOH A   665     O    HOH A   684              2.17            
 500   O    HOH A   521     O    HOH A   670              2.18            
 500   O    HOH A   607     O    HOH A   624              2.19            
 500   OE1  GLN A   188     O    HOH A   406              2.19            
 500                                                                      
 500 REMARK: NULL                                                         
 500                                                                      
 500 GEOMETRY AND STEREOCHEMISTRY                                         
 500 SUBTOPIC: CLOSE CONTACTS                                             
 500                                                                      
 500 THE FOLLOWING ATOMS THAT ARE RELATED BY CRYSTALLOGRAPHIC             
 500 SYMMETRY ARE IN CLOSE CONTACT.  AN ATOM LOCATED WITHIN 0.15          
 500 ANGSTROMS OF A SYMMETRY RELATED ATOM IS ASSUMED TO BE ON A           
 500 SPECIAL POSITION AND IS, THEREFORE, LISTED IN REMARK 375             
 500 INSTEAD OF REMARK 500.  ATOMS WITH NON-BLANK ALTERNATE               
 500 LOCATION INDICATORS ARE NOT INCLUDED IN THE CALCULATIONS.            
 500                                                                      
 500 DISTANCE CUTOFF:                                                     
 500 2.2 ANGSTROMS FOR CONTACTS NOT INVOLVING HYDROGEN ATOMS              
 500 1.6 ANGSTROMS FOR CONTACTS INVOLVING HYDROGEN ATOMS                  
 500                                                                      
 500  ATM1  RES C  SSEQI   ATM2  RES C  SSEQI  SSYMOP   DISTANCE          
 500  HE22  GLN A   188     O    HOH A   662     3545     1.55            
 500   O    HOH A   608     O    HOH A   678     3545     1.98            
 500   NE2  GLN A   188     O    HOH A   662     3545     2.04            
 500   O    HOH A   484     O    HOH A   513     3545     2.06            
 500   O    HOH A   565     O    HOH A   582     3545     2.11            
 500                                                                      
 500 REMARK: NULL                                                         
 500                                                                      
 500 GEOMETRY AND STEREOCHEMISTRY                                         
 500 SUBTOPIC: TORSION ANGLES                                             
 500                                                                      
 500 TORSION ANGLES OUTSIDE THE EXPECTED RAMACHANDRAN REGIONS:            
 500 (M=MODEL NUMBER; RES=RESIDUE NAME; C=CHAIN IDENTIFIER;               
 500 SSEQ=SEQUENCE NUMBER; I=INSERTION CODE).                             
 500                                                                      
 500 STANDARD TABLE:                                                      
 500 FORMAT:(10X,I3,1X,A3,1X,A1,I4,A1,4X,F7.2,3X,F7.2)                    
 500                                                                      
 500 EXPECTED VALUES: GJ KLEYWEGT AND TA JONES (1996). PHI/PSI-           
 500 CHOLOGY: RAMACHANDRAN REVISITED. STRUCTURE 4, 1395 - 1400            
 500                                                                      
 500  M RES CSSEQI        PSI       PHI                                   
 500    CYS A  69     -139.11     49.69                                   
 500    VAL A 103     -145.16   -123.51                                   
 500    VAL A 103     -145.16    -95.12                                   
 500    TYR A 105       86.19     78.60                                   
 500    SER A 220     -122.98   -104.77                                   
 500                                                                      
 500 REMARK: NULL                                                         
 525                                                                      
 525 SOLVENT                                                              
 525                                                                      
 525 THE SOLVENT MOLECULES HAVE CHAIN IDENTIFIERS THAT                    
 525 INDICATE THE POLYMER CHAIN WITH WHICH THEY ARE MOST                  
 525 CLOSELY ASSOCIATED. THE REMARK LISTS ALL THE SOLVENT                 
 525 MOLECULES WHICH ARE MORE THAN 5A AWAY FROM THE                       
 525 NEAREST POLYMER CHAIN (M = MODEL NUMBER;                             
 525 RES=RESIDUE NAME; C=CHAIN IDENTIFIER; SSEQ=SEQUENCE                  
 525 NUMBER; I=INSERTION CODE):                                           
 525                                                                      
 525  M RES CSSEQI                                                        
 525    HOH A 691        DISTANCE =  6.28 ANGSTROMS                       
 800                                                                      
 800 SITE                                                                 
 800 SITE_IDENTIFIER: AC1                                                 
 800 EVIDENCE_CODE: SOFTWARE                                              
 800 SITE_DESCRIPTION: binding site for residue QBZ A 301                 
 800                                                                      
 800 SITE_IDENTIFIER: AC2                                                 
 800 EVIDENCE_CODE: SOFTWARE                                              
 800 SITE_DESCRIPTION: binding site for residue SO4 A 302                 
 800                                                                      
 800 SITE_IDENTIFIER: AC3                                                 
 800 EVIDENCE_CODE: SOFTWARE                                              
 800 SITE_DESCRIPTION: binding site for residue SO4 A 303                 
 800                                                                      
 800 SITE_IDENTIFIER: AC4                                                 
 800 EVIDENCE_CODE: SOFTWARE                                              
 800 SITE_DESCRIPTION: binding site for residue CL A 304                  

>  <DBREF>
 6Z7K A   26   288  UNP    G3G192   G3G192_KLEPN    49    311             

>  <SEQADV>
 6Z7K GLY A   24  UNP  G3G192              EXPRESSION TAG                 
 6Z7K PRO A   25  UNP  G3G192              EXPRESSION TAG                 

>  <SEQRES>
   1 A  265  GLY PRO GLN THR ALA ASP VAL GLN GLN LYS LEU ALA GLU          
   2 A  265  LEU GLU ARG GLN SER GLY GLY ARG LEU GLY VAL ALA LEU          
   3 A  265  ILE ASN THR ALA ASP ASN SER GLN ILE LEU TYR ARG ALA          
   4 A  265  ASP GLU ARG PHE ALA MET CYS SER THR SER LYS VAL MET          
   5 A  265  ALA ALA ALA ALA VAL LEU LYS LYS SER GLU SER GLU PRO          
   6 A  265  ASN LEU LEU ASN GLN ARG VAL GLU ILE LYS LYS SER ASP          
   7 A  265  LEU VAL ASN TYR ASN PRO ILE ALA GLU LYS HIS VAL ASN          
   8 A  265  GLY THR MET SER LEU ALA GLU LEU SER ALA ALA ALA LEU          
   9 A  265  GLN TYR SER ASP ASN VAL ALA MET ASN LYS LEU ILE ALA          
  10 A  265  HIS VAL GLY GLY PRO ALA SER VAL THR ALA PHE ALA ARG          
  11 A  265  GLN LEU GLY ASP GLU THR PHE ARG LEU ASP ARG THR GLU          
  12 A  265  PRO THR LEU ASN THR ALA ILE PRO GLY ASP PRO ARG ASP          
  13 A  265  THR THR SER PRO ARG ALA MET ALA GLN THR LEU ARG ASN          
  14 A  265  LEU THR LEU GLY LYS ALA LEU GLY ASP SER GLN ARG ALA          
  15 A  265  GLN LEU VAL THR TRP MET LYS GLY ASN THR THR GLY ALA          
  16 A  265  ALA SER ILE GLN ALA GLY LEU PRO ALA SER TRP VAL VAL          
  17 A  265  GLY ASP LYS THR GLY SER GLY GLY TYR GLY THR THR ASN          
  18 A  265  ASP ILE ALA VAL ILE TRP PRO LYS ASP ARG ALA PRO LEU          
  19 A  265  ILE LEU VAL THR TYR PHE THR GLN PRO GLN PRO LYS ALA          
  20 A  265  GLU SER ARG ARG ASP VAL LEU ALA SER ALA ALA LYS ILE          
  21 A  265  VAL THR ASP GLY LEU                                          

>  <HET>
 QBZ  A 301      31                                                       
 SO4  A 302       5                                                       
 SO4  A 303       5                                                       
  CL  A 304       1                                                       

>  <HETNAM>
     QBZ (2~{S},3~{S})-3-[BIS(OXIDANYLIDENE)-$L^{5}-SULFANYL]-3-          
   2 QBZ  METHYL-2-[(~{E})-3-OXIDANYLIDENEPROPYLIDENEAMINO]-4-            
   3 QBZ  (1,2,3-TRIAZ OL-1-YL)BUTANOIC ACID                              
     SO4 SULFATE ION                                                      
      CL CHLORIDE ION                                                     

>  <HETSYN>
     QBZ TAZOBACTAM IMINE INTERMEDIATE                                    

>  <FORMUL>
   2  QBZ    C10 H13 N4 O6 S 1-                                           
   3  SO4    2(O4 S 2-)                                                   
   5   CL    CL 1-                                                        
   6  HOH   *291(H2 O)                                                    

>  <HELIX>
   1 AA1 THR A   27  GLY A   42  1                                  16    
   2 AA2 CYS A   69  THR A   71  5                                   3    
   3 AA3 SER A   72  GLU A   85  1                                  14    
   4 AA4 LYS A   98  LEU A  102  5                                   5    
   5 AA5 ILE A  108  VAL A  113  5                                   6    
   6 AA6 LEU A  119  TYR A  129  1                                  11    
   7 AA7 ASP A  131  VAL A  142  1                                  12    
   8 AA8 GLY A  144  LEU A  155  1                                  12    
   9 AA9 PRO A  167  THR A  171  5                                   5    
  10 AB1 SER A  182  LEU A  195  1                                  14    
  11 AB2 GLY A  200  GLY A  213  1                                  14    
  12 AB3 SER A  220  LEU A  225  5                                   6    
  13 AB4 ARG A  273  ASP A  286  1                                  14    

>  <SHEET>
   1 AA1 5 SER A  56  TYR A  60  0                                        
   2 AA1 5 ARG A  44  ASN A  51 -1  N  ASN A  51   O  SER A  56           
   3 AA1 5 LEU A 257  THR A 264 -1  O  TYR A 262   N  GLY A  46           
   4 AA1 5 THR A 242  TRP A 250 -1  N  ILE A 249   O  LEU A 257           
   5 AA1 5 VAL A 230  GLY A 238 -1  N  VAL A 230   O  TRP A 250           
   1 AA2 2 PHE A  66  ALA A  67  0                                        
   2 AA2 2 THR A 180  THR A 181 -1  O  THR A 181   N  PHE A  66           
   1 AA3 2 ARG A  94  GLU A  96  0                                        
   2 AA3 2 THR A 116  SER A 118 -1  O  MET A 117   N  VAL A  95           

>  <LINK>
       OG  SER A  70                 C02 QBZ A 301     1555   1555  1.37  

>  <CISPEP>
   1 GLU A  166    PRO A  167          0         7.52                     

>  <SITE>
   1 AC1 14 CYS A  69  SER A  70  ASN A 104  ASN A 132                    
   2 AC1 14 PRO A 167  ASN A 170  GLY A 236  SER A 237                    
   3 AC1 14 GLY A 238  GLY A 239  SO4 A 302  HOH A 402                    
   4 AC1 14 HOH A 422  HOH A 509                                          
   1 AC2 10 ARG A  39  SER A  70  SER A 130  THR A 216                    
   2 AC2 10 LYS A 234  THR A 235  GLY A 236  QBZ A 301                    
   3 AC2 10 HOH A 424  HOH A 539                                          
   1 AC3 10 LYS A  82  GLN A 154  ARG A 164  THR A 168                    
   2 AC3 10 HOH A 421  HOH A 525  HOH A 527  HOH A 560                    
   3 AC3 10 HOH A 572  HOH A 605                                          
   1 AC4  4 ALA A 227  GLN A 267  PRO A 268  LYS A 269                    

>  <ORIGX1>
      1.000000  0.000000  0.000000        0.00000                         

>  <ORIGX2>
      0.000000  1.000000  0.000000        0.00000                         

>  <ORIGX3>
      0.000000  0.000000  1.000000        0.00000                         

>  <SCALE1>
      0.022375  0.000000  0.000000        0.00000                         

>  <SCALE2>
      0.000000  0.022014  0.000000        0.00000                         

>  <SCALE3>
      0.000000  0.000000  0.008492        0.00000                         

>  <ANISOU>
  672  N   SER A  70     1029    985    996    -76     56   -156       N  
  673  CA  SER A  70      997   1112   1043   -138    111   -135       C  
  674  C   SER A  70     1006   1131    957   -118     56    -55       C  
  675  O   SER A  70     1055   1108   1016   -128     42   -144       O  
  676  CB  SER A  70     1146   1078   1264    -46    257   -100       C  
  677  OG  SER A  70     1593   1348   1442    155    260    -27       O  
 4123  C20 QBZ A 301     5672   2674   3060   -826    975    182       C  
 4124  C14 QBZ A 301     6577   6395   4232    207    798    429       C  
 4125  N15 QBZ A 301     6590   6444   4254    125    778    444       N  
 4126  N16 QBZ A 301     6503   6250   4166    -44    827    424       N  
 4127  C02 QBZ A 301     1694   1246   1531    250    160    139       C  
 4128  C03 QBZ A 301     2428   1644   1913    416    356    231       C  
 4129  C04 QBZ A 301     2892   1492   2063     95    440    302       C  
 4130  C06 QBZ A 301     4752   2385   2659   -649    868    241       C  
 4131  C07 QBZ A 301     5266   2812   2762   -586    687    174       C  
 4132  C10 QBZ A 301     5535   2837   2987   -839   1082    194       C  
 4133  C11 QBZ A 301     6000   4383   3475   -601   1033    346       C  
 4134  C13 QBZ A 301     6493   6179   4149     38    841    410       C  
 4135  N05 QBZ A 301     3579   1718   2300   -152    700    341       N  
 4136  N12 QBZ A 301     6357   5710   3950   -236    910    399       N  
 4137  O01 QBZ A 301     1459   1146   1262    172     52    -16       O  
 4138  O08 QBZ A 301     5604   3130   2817   -255    725     -2       O1-
 4139  O09 QBZ A 301     5293   2991   2770   -748    503    216       O  
 4140  O18 QBZ A 301     5537   2365   2842   -953   1685     80       O1-
 4141  O19 QBZ A 301     6611   2513   2891   -710   1318    170       O  
 4142  S17 QBZ A 301     5669   2073   2739   -922   1403     83       S  

>  <MASTER>
      331    0    4   13    9    0   11    6 2286    1   42   21          

$$$$
