start_structures/Ligand_Substrate/Ligand_Complex_Stripped/QFP_6UQS.pdb
 OpenBabel08222315213D

 18 18  0  0  1  0  0  0  0  0999 V2000
    7.2600    8.3660   16.7270 N   0  0  0  0  0  0  0  0  0  0  0  0
    6.8710    7.5620   17.8570 C   0  0  2  0  0  0  0  0  0  0  0  0
    6.5570    6.1130   17.5840 C   0  0  0  0  0  0  0  0  0  0  0  0
    6.3800    5.3640   18.5560 O   0  0  0  0  0  0  0  0  0  0  0  0
    5.6960    8.1980   18.5710 C   0  0  0  0  0  0  0  0  0  0  0  0
    6.0100    9.4550   19.0760 O   0  0  0  0  0  0  0  0  0  0  0  0
    5.6020   12.2670   20.5300 C   0  0  0  0  0  0  0  0  0  0  0  0
    8.1140   13.4340   19.6740 C   0  0  0  0  0  0  0  0  0  0  0  0
    6.2670   13.2790   21.3330 C   0  0  0  0  0  0  0  0  0  0  0  0
    3.1020   11.2740   17.9440 C   0  0  0  0  0  0  0  0  0  0  0  0
    7.5050   13.8610   20.9100 C   0  0  0  0  0  0  0  0  0  0  0  0
    7.4440   12.4170   18.9110 C   0  0  0  0  0  0  0  0  0  0  0  0
    6.1860   11.8420   19.2890 C   0  0  0  0  0  0  0  0  0  0  0  0
    5.4950   10.6740   18.4970 B   0  0  2  0  0  0  0  0  0  0  0  0
    4.0460   10.5550   18.7440 O   0  0  0  0  0  0  0  0  0  0  0  0
    5.7340   10.6720   17.0330 O   0  0  0  0  0  0  0  0  0  0  0  0
    2.3140   10.3480   16.9540 C   0  0  0  0  0  0  0  0  0  0  0  0
    1.5250    9.5760   17.7910 O   0  0  0  0  0  0  0  0  0  0  0  0
  2  1  1  6  0  0  0
  2  5  1  0  0  0  0
  3  2  1  0  0  0  0
  3  4  2  0  0  0  0
  5  6  1  0  0  0  0
  6 14  1  0  0  0  0
  7  9  2  0  0  0  0
  7 13  1  0  0  0  0
  8 11  2  0  0  0  0
  8 12  1  0  0  0  0
  9 11  1  0  0  0  0
 10 15  1  0  0  0  0
 10 17  1  0  0  0  0
 12 13  2  0  0  0  0
 13 14  1  0  0  0  0
 14 15  1  0  0  0  0
 14 16  1  6  0  0  0
 17 18  1  0  0  0  0
M  END
>  <HEADER>
    ANTIBIOTIC                              21-OCT-19   6UQS              

>  <TITLE>
    SERENDIPITOUS DISCOVERY OF ARYL BORONIC ACIDS AS BETA-LACTAMASE       
   2 INHIBITORS                                                           

>  <COMPND>
    MOL_ID: 1;                                                            
   2 MOLECULE: BETA-LACTAMASE;                                            
   3 CHAIN: A;                                                            
   4 EC: 3.5.2.6;                                                         
   5 ENGINEERED: YES;                                                     
   6 MUTATION: YES                                                        

>  <SOURCE>
    MOL_ID: 1;                                                            
   2 ORGANISM_SCIENTIFIC: PSEUDOMONAS AERUGINOSA;                         
   3 ORGANISM_TAXID: 287;                                                 
   4 GENE: AMPC, RW109_RW109_01564;                                       
   5 EXPRESSION_SYSTEM: ESCHERICHIA COLI;                                 
   6 EXPRESSION_SYSTEM_TAXID: 562                                         

>  <KEYWDS>
    BORONIC ACID INHIBITORS, DRUG RESISTANCE, ANTIBIOTIC                  

>  <EXPDTA>
    X-RAY DIFFRACTION                                                     

>  <AUTHOR>
    G.SCAPIN                                                              

>  <REVDAT>
   3   15-JAN-20 6UQS    1       JRNL                                     
   2   04-DEC-19 6UQS    1       JRNL                                     
   1   30-OCT-19 6UQS    0                                                

>  <JRNL>
      AUTH   S.W.YANG,J.PAN,Y.ROOT,G.SCAPIN,L.XIAO,J.SU                   
      TITL   SERENDIPITOUS DISCOVERY OF ARYL BORONIC ACIDS AS             
      TITL 2 BETA-LACTAMASE INHIBITORS.                                   
      REF    BIOORG.MED.CHEM.LETT.         V.  30 26795 2020              
      REFN                   ESSN 1464-3405                               
      PMID   31759850                                                     
      DOI    10.1016/J.BMCL.2019.126795                                   

>  <REMARK>
   2                                                                      
   2 RESOLUTION.    1.37 ANGSTROMS.                                       
   3                                                                      
   3 REFINEMENT.                                                          
   3   PROGRAM     : REFMAC 5.8.0123                                      
   3   AUTHORS     : MURSHUDOV,SKUBAK,LEBEDEV,PANNU,STEINER,              
   3               : NICHOLLS,WINN,LONG,VAGIN                             
   3                                                                      
   3    REFINEMENT TARGET : MAXIMUM LIKELIHOOD                            
   3                                                                      
   3  DATA USED IN REFINEMENT.                                            
   3   RESOLUTION RANGE HIGH (ANGSTROMS) : 1.37                           
   3   RESOLUTION RANGE LOW  (ANGSTROMS) : 59.51                          
   3   DATA CUTOFF            (SIGMA(F)) : 0.000                          
   3   COMPLETENESS FOR RANGE        (%) : 97.2                           
   3   NUMBER OF REFLECTIONS             : 67050                          
   3                                                                      
   3  FIT TO DATA USED IN REFINEMENT.                                     
   3   CROSS-VALIDATION METHOD          : THROUGHOUT                      
   3   FREE R VALUE TEST SET SELECTION  : RANDOM                          
   3   R VALUE     (WORKING + TEST SET) : 0.155                           
   3   R VALUE            (WORKING SET) : 0.154                           
   3   FREE R VALUE                     : 0.177                           
   3   FREE R VALUE TEST SET SIZE   (%) : 5.100                           
   3   FREE R VALUE TEST SET COUNT      : 3571                            
   3                                                                      
   3  FIT IN THE HIGHEST RESOLUTION BIN.                                  
   3   TOTAL NUMBER OF BINS USED           : NULL                         
   3   BIN RESOLUTION RANGE HIGH       (A) : 1.37                         
   3   BIN RESOLUTION RANGE LOW        (A) : 1.40                         
   3   REFLECTION IN BIN     (WORKING SET) : 4770                         
   3   BIN COMPLETENESS (WORKING+TEST) (%) : 94.83                        
   3   BIN R VALUE           (WORKING SET) : 0.2280                       
   3   BIN FREE R VALUE SET COUNT          : 254                          
   3   BIN FREE R VALUE                    : 0.2230                       
   3                                                                      
   3  NUMBER OF NON-HYDROGEN ATOMS USED IN REFINEMENT.                    
   3   PROTEIN ATOMS            : 2786                                    
   3   NUCLEIC ACID ATOMS       : 0                                       
   3   HETEROGEN ATOMS          : 13                                      
   3   SOLVENT ATOMS            : 539                                     
   3                                                                      
   3  B VALUES.                                                           
   3   FROM WILSON PLOT           (A**2) : NULL                           
   3   MEAN B VALUE      (OVERALL, A**2) : 16.20                          
   3   OVERALL ANISOTROPIC B VALUE.                                       
   3    B11 (A**2) : -0.65000                                             
   3    B22 (A**2) : 0.32000                                              
   3    B33 (A**2) : 0.33000                                              
   3    B12 (A**2) : 0.00000                                              
   3    B13 (A**2) : 0.00000                                              
   3    B23 (A**2) : 0.00000                                              
   3                                                                      
   3  ESTIMATED OVERALL COORDINATE ERROR.                                 
   3   ESU BASED ON R VALUE                            (A): 0.055         
   3   ESU BASED ON FREE R VALUE                       (A): 0.056         
   3   ESU BASED ON MAXIMUM LIKELIHOOD                 (A): 0.035         
   3   ESU FOR B VALUES BASED ON MAXIMUM LIKELIHOOD (A**2): 0.850         
   3                                                                      
   3 CORRELATION COEFFICIENTS.                                            
   3   CORRELATION COEFFICIENT FO-FC      : 0.971                         
   3   CORRELATION COEFFICIENT FO-FC FREE : 0.964                         
   3                                                                      
   3  RMS DEVIATIONS FROM IDEAL VALUES        COUNT    RMS    WEIGHT      
   3   BOND LENGTHS REFINED ATOMS        (A):  2929 ; 0.013 ; 0.019       
   3   BOND LENGTHS OTHERS               (A):  2773 ; 0.002 ; 0.020       
   3   BOND ANGLES REFINED ATOMS   (DEGREES):  3992 ; 1.666 ; 1.978       
   3   BOND ANGLES OTHERS          (DEGREES):  6373 ; 0.960 ; 3.000       
   3   TORSION ANGLES, PERIOD 1    (DEGREES):   378 ; 6.137 ; 5.000       
   3   TORSION ANGLES, PERIOD 2    (DEGREES):   134 ;34.317 ;23.582       
   3   TORSION ANGLES, PERIOD 3    (DEGREES):   461 ;12.018 ;15.000       
   3   TORSION ANGLES, PERIOD 4    (DEGREES):    23 ;12.911 ;15.000       
   3   CHIRAL-CENTER RESTRAINTS       (A**3):   429 ; 0.102 ; 0.200       
   3   GENERAL PLANES REFINED ATOMS      (A):  3387 ; 0.009 ; 0.021       
   3   GENERAL PLANES OTHERS             (A):   683 ; 0.002 ; 0.020       
   3   NON-BONDED CONTACTS REFINED ATOMS (A):  NULL ;  NULL ;  NULL       
   3   NON-BONDED CONTACTS OTHERS        (A):  NULL ;  NULL ;  NULL       
   3   NON-BONDED TORSION REFINED ATOMS  (A):  NULL ;  NULL ;  NULL       
   3   NON-BONDED TORSION OTHERS         (A):  NULL ;  NULL ;  NULL       
   3   H-BOND (X...Y) REFINED ATOMS      (A):  NULL ;  NULL ;  NULL       
   3   H-BOND (X...Y) OTHERS             (A):  NULL ;  NULL ;  NULL       
   3   POTENTIAL METAL-ION REFINED ATOMS (A):  NULL ;  NULL ;  NULL       
   3   POTENTIAL METAL-ION OTHERS        (A):  NULL ;  NULL ;  NULL       
   3   SYMMETRY VDW REFINED ATOMS        (A):  NULL ;  NULL ;  NULL       
   3   SYMMETRY VDW OTHERS               (A):  NULL ;  NULL ;  NULL       
   3   SYMMETRY H-BOND REFINED ATOMS     (A):  NULL ;  NULL ;  NULL       
   3   SYMMETRY H-BOND OTHERS            (A):  NULL ;  NULL ;  NULL       
   3   SYMMETRY METAL-ION REFINED ATOMS  (A):  NULL ;  NULL ;  NULL       
   3   SYMMETRY METAL-ION OTHERS         (A):  NULL ;  NULL ;  NULL       
   3                                                                      
   3  ISOTROPIC THERMAL FACTOR RESTRAINTS.     COUNT   RMS    WEIGHT      
   3   MAIN-CHAIN BOND REFINED ATOMS  (A**2):  NULL ;  NULL ;  NULL       
   3   MAIN-CHAIN BOND OTHER ATOMS    (A**2):  NULL ;  NULL ;  NULL       
   3   MAIN-CHAIN ANGLE REFINED ATOMS (A**2):  NULL ;  NULL ;  NULL       
   3   MAIN-CHAIN ANGLE OTHER ATOMS   (A**2):  NULL ;  NULL ;  NULL       
   3   SIDE-CHAIN BOND REFINED ATOMS  (A**2):  NULL ;  NULL ;  NULL       
   3   SIDE-CHAIN BOND OTHER ATOMS    (A**2):  NULL ;  NULL ;  NULL       
   3   SIDE-CHAIN ANGLE REFINED ATOMS (A**2):  NULL ;  NULL ;  NULL       
   3   SIDE-CHAIN ANGLE OTHER ATOMS   (A**2):  NULL ;  NULL ;  NULL       
   3   LONG RANGE B REFINED ATOMS     (A**2):  NULL ;  NULL ;  NULL       
   3   LONG RANGE B OTHER ATOMS       (A**2):  NULL ;  NULL ;  NULL       
   3                                                                      
   3 ANISOTROPIC THERMAL FACTOR RESTRAINTS.    COUNT   RMS   WEIGHT       
   3   RIGID-BOND RESTRAINTS          (A**2):  NULL ;  NULL ;  NULL       
   3   SPHERICITY; FREE ATOMS         (A**2):  NULL ;  NULL ;  NULL       
   3   SPHERICITY; BONDED ATOMS       (A**2):  NULL ;  NULL ;  NULL       
   3                                                                      
   3  NCS RESTRAINTS STATISTICS                                           
   3   NUMBER OF DIFFERENT NCS GROUPS : NULL                              
   3                                                                      
   3  TLS DETAILS                                                         
   3   NUMBER OF TLS GROUPS  : NULL                                       
   3                                                                      
   3  BULK SOLVENT MODELLING.                                             
   3   METHOD USED : MASK                                                 
   3   PARAMETERS FOR MASK CALCULATION                                    
   3   VDW PROBE RADIUS   : 1.20                                          
   3   ION PROBE RADIUS   : 0.80                                          
   3   SHRINKAGE RADIUS   : 0.80                                          
   3                                                                      
   3  OTHER REFINEMENT REMARKS: HYDROGENS HAVE BEEN ADDED IN THE RIDING   
   3  POSITIONS U VALUES : REFINED INDIVIDUALLY                           
   4                                                                      
   4 6UQS COMPLIES WITH FORMAT V. 3.30, 13-JUL-11                         
 100                                                                      
 100 THIS ENTRY HAS BEEN PROCESSED BY RCSB ON 23-OCT-19.                  
 100 THE DEPOSITION ID IS D_1000245048.                                   
 200                                                                      
 200 EXPERIMENTAL DETAILS                                                 
 200  EXPERIMENT TYPE                : X-RAY DIFFRACTION                  
 200  DATE OF DATA COLLECTION        : 12-MAR-12                          
 200  TEMPERATURE           (KELVIN) : 100                                
 200  PH                             : NULL                               
 200  NUMBER OF CRYSTALS USED        : 1                                  
 200                                                                      
 200  SYNCHROTRON              (Y/N) : Y                                  
 200  RADIATION SOURCE               : APS                                
 200  BEAMLINE                       : 17-ID                              
 200  X-RAY GENERATOR MODEL          : NULL                               
 200  MONOCHROMATIC OR LAUE    (M/L) : M                                  
 200  WAVELENGTH OR RANGE        (A) : 1.0                                
 200  MONOCHROMATOR                  : NULL                               
 200  OPTICS                         : NULL                               
 200                                                                      
 200  DETECTOR TYPE                  : PIXEL                              
 200  DETECTOR MANUFACTURER          : DECTRIS PILATUS 6M                 
 200  INTENSITY-INTEGRATION SOFTWARE : XDS                                
 200  DATA SCALING SOFTWARE          : SCALA 3.3.20                       
 200                                                                      
 200  NUMBER OF UNIQUE REFLECTIONS   : 70690                              
 200  RESOLUTION RANGE HIGH      (A) : 1.368                              
 200  RESOLUTION RANGE LOW       (A) : 105.218                            
 200  REJECTION CRITERIA  (SIGMA(I)) : NULL                               
 200                                                                      
 200 OVERALL.                                                             
 200  COMPLETENESS FOR RANGE     (%) : 97.4                               
 200  DATA REDUNDANCY                : 6.400                              
 200  R MERGE                    (I) : NULL                               
 200  R SYM                      (I) : 0.10100                            
 200  <I/SIGMA(I)> FOR THE DATA SET  : 10.6000                            
 200                                                                      
 200 IN THE HIGHEST RESOLUTION SHELL.                                     
 200  HIGHEST RESOLUTION SHELL, RANGE HIGH (A) : 1.37                     
 200  HIGHEST RESOLUTION SHELL, RANGE LOW  (A) : 1.44                     
 200  COMPLETENESS FOR SHELL     (%) : 95.4                               
 200  DATA REDUNDANCY IN SHELL       : 5.90                               
 200  R MERGE FOR SHELL          (I) : 0.51900                            
 200  R SYM FOR SHELL            (I) : 0.51900                            
 200  <I/SIGMA(I)> FOR SHELL         : 1.400                              
 200                                                                      
 200 DIFFRACTION PROTOCOL: SINGLE WAVELENGTH                              
 200 METHOD USED TO DETERMINE THE STRUCTURE: FOURIER SYNTHESIS            
 200 SOFTWARE USED: REFMAC                                                
 200 STARTING MODEL: NULL                                                 
 200                                                                      
 200 REMARK: NULL                                                         
 280                                                                      
 280 CRYSTAL                                                              
 280 SOLVENT CONTENT, VS   (%): 40.60                                     
 280 MATTHEWS COEFFICIENT, VM (ANGSTROMS**3/DA): 2.10                     
 280                                                                      
 280 CRYSTALLIZATION CONDITIONS: 18% PEG 3350, 10% ISOPROPANOL, 100 MM    
 280  IMIDAZOLE, PH=6.5; SEEDING, VAPOR DIFFUSION, HANGING DROP,          
 280  TEMPERATURE 298K                                                    
 290                                                                      
 290 CRYSTALLOGRAPHIC SYMMETRY                                            
 290 SYMMETRY OPERATORS FOR SPACE GROUP: P 21 21 21                       
 290                                                                      
 290      SYMOP   SYMMETRY                                                
 290     NNNMMM   OPERATOR                                                
 290       1555   X,Y,Z                                                   
 290       2555   -X+1/2,-Y,Z+1/2                                         
 290       3555   -X,Y+1/2,-Z+1/2                                         
 290       4555   X+1/2,-Y+1/2,-Z                                         
 290                                                                      
 290     WHERE NNN -> OPERATOR NUMBER                                     
 290           MMM -> TRANSLATION VECTOR                                  
 290                                                                      
 290 CRYSTALLOGRAPHIC SYMMETRY TRANSFORMATIONS                            
 290 THE FOLLOWING TRANSFORMATIONS OPERATE ON THE ATOM/HETATM             
 290 RECORDS IN THIS ENTRY TO PRODUCE CRYSTALLOGRAPHICALLY                
 290 RELATED MOLECULES.                                                   
 290   SMTRY1   1  1.000000  0.000000  0.000000        0.00000            
 290   SMTRY2   1  0.000000  1.000000  0.000000        0.00000            
 290   SMTRY3   1  0.000000  0.000000  1.000000        0.00000            
 290   SMTRY1   2 -1.000000  0.000000  0.000000       22.37200            
 290   SMTRY2   2  0.000000 -1.000000  0.000000        0.00000            
 290   SMTRY3   2  0.000000  0.000000  1.000000       52.60900            
 290   SMTRY1   3 -1.000000  0.000000  0.000000        0.00000            
 290   SMTRY2   3  0.000000  1.000000  0.000000       36.08400            
 290   SMTRY3   3  0.000000  0.000000 -1.000000       52.60900            
 290   SMTRY1   4  1.000000  0.000000  0.000000       22.37200            
 290   SMTRY2   4  0.000000 -1.000000  0.000000       36.08400            
 290   SMTRY3   4  0.000000  0.000000 -1.000000        0.00000            
 290                                                                      
 290 REMARK: NULL                                                         
 300                                                                      
 300 BIOMOLECULE: 1                                                       
 300 SEE REMARK 350 FOR THE AUTHOR PROVIDED AND/OR PROGRAM                
 300 GENERATED ASSEMBLY INFORMATION FOR THE STRUCTURE IN                  
 300 THIS ENTRY. THE REMARK MAY ALSO PROVIDE INFORMATION ON               
 300 BURIED SURFACE AREA.                                                 
 350                                                                      
 350 COORDINATES FOR A COMPLETE MULTIMER REPRESENTING THE KNOWN           
 350 BIOLOGICALLY SIGNIFICANT OLIGOMERIZATION STATE OF THE                
 350 MOLECULE CAN BE GENERATED BY APPLYING BIOMT TRANSFORMATIONS          
 350 GIVEN BELOW.  BOTH NON-CRYSTALLOGRAPHIC AND                          
 350 CRYSTALLOGRAPHIC OPERATIONS ARE GIVEN.                               
 350                                                                      
 350 BIOMOLECULE: 1                                                       
 350 AUTHOR DETERMINED BIOLOGICAL UNIT: MONOMERIC                         
 350 SOFTWARE DETERMINED QUATERNARY STRUCTURE: MONOMERIC                  
 350 SOFTWARE USED: PISA                                                  
 350 APPLY THE FOLLOWING TO CHAINS: A                                     
 350   BIOMT1   1  1.000000  0.000000  0.000000        0.00000            
 350   BIOMT2   1  0.000000  1.000000  0.000000        0.00000            
 350   BIOMT3   1  0.000000  0.000000  1.000000        0.00000            
 465                                                                      
 465 MISSING RESIDUES                                                     
 465 THE FOLLOWING RESIDUES WERE NOT LOCATED IN THE                       
 465 EXPERIMENT. (M=MODEL NUMBER; RES=RESIDUE NAME; C=CHAIN               
 465 IDENTIFIER; SSSEQ=SEQUENCE NUMBER; I=INSERTION CODE.)                
 465                                                                      
 465   M RES C SSSEQI                                                     
 465     GLY A    23                                                      
 465     SER A    24                                                      
 465     LYS A    25                                                      
 465     LEU A    26                                                      
 465     GLN A   390                                                      
 465     GLY A   391                                                      
 465     LYS A   392                                                      
 465     VAL A   393                                                      
 465     PRO A   394                                                      
 465     LEU A   395                                                      
 465     LYS A   396                                                      
 465     ALA A   397                                                      
 470                                                                      
 470 MISSING ATOM                                                         
 470 THE FOLLOWING RESIDUES HAVE MISSING ATOMS (M=MODEL NUMBER;           
 470 RES=RESIDUE NAME; C=CHAIN IDENTIFIER; SSEQ=SEQUENCE NUMBER;          
 470 I=INSERTION CODE):                                                   
 470   M RES CSSEQI  ATOMS                                                
 470     ARG A 163    CZ   NH1  NH2                                       
 470     LEU A 193    O                                                   
 470     LYS A 232    CG   CD   CE   NZ                                   
 470     ARG A 284    NE   CZ   NH1  NH2                                  
 470     ARG A 324    CG   CD   NE   CZ   NH1  NH2                        
 470     GLU A 388    CG   CD   OE1  OE2                                  
 470     GLN A 389    CG   CD   OE1  NE2                                  
 500                                                                      
 500 GEOMETRY AND STEREOCHEMISTRY                                         
 500 SUBTOPIC: COVALENT BOND ANGLES                                       
 500                                                                      
 500 THE STEREOCHEMICAL PARAMETERS OF THE FOLLOWING RESIDUES              
 500 HAVE VALUES WHICH DEVIATE FROM EXPECTED VALUES BY MORE               
 500 THAN 6*RMSD (M=MODEL NUMBER; RES=RESIDUE NAME; C=CHAIN               
 500 IDENTIFIER; SSEQ=SEQUENCE NUMBER; I=INSERTION CODE).                 
 500                                                                      
 500 STANDARD TABLE:                                                      
 500 FORMAT: (10X,I3,1X,A3,1X,A1,I4,A1,3(1X,A4,2X),12X,F5.1)              
 500                                                                      
 500 EXPECTED VALUES PROTEIN: ENGH AND HUBER, 1999                        
 500 EXPECTED VALUES NUCLEIC ACID: CLOWNEY ET AL 1996                     
 500                                                                      
 500  M RES CSSEQI ATM1   ATM2   ATM3                                     
 500    ARG A 260   NE  -  CZ  -  NH2 ANGL. DEV. =   3.1 DEGREES          
 500    ARG A 273   NE  -  CZ  -  NH1 ANGL. DEV. =   3.1 DEGREES          
 500    ASP A 280   CB  -  CG  -  OD2 ANGL. DEV. =  -6.5 DEGREES          
 500                                                                      
 500 REMARK: NULL                                                         
 500                                                                      
 500 GEOMETRY AND STEREOCHEMISTRY                                         
 500 SUBTOPIC: TORSION ANGLES                                             
 500                                                                      
 500 TORSION ANGLES OUTSIDE THE EXPECTED RAMACHANDRAN REGIONS:            
 500 (M=MODEL NUMBER; RES=RESIDUE NAME; C=CHAIN IDENTIFIER;               
 500 SSEQ=SEQUENCE NUMBER; I=INSERTION CODE).                             
 500                                                                      
 500 STANDARD TABLE:                                                      
 500 FORMAT:(10X,I3,1X,A3,1X,A1,I4,A1,4X,F7.2,3X,F7.2)                    
 500                                                                      
 500 EXPECTED VALUES: GJ KLEYWEGT AND TA JONES (1996). PHI/PSI-           
 500 CHOLOGY: RAMACHANDRAN REVISITED. STRUCTURE 4, 1395 - 1400            
 500                                                                      
 500  M RES CSSEQI        PSI       PHI                                   
 500    GLN A 204      -53.38   -120.43                                   
 500    TYR A 249       19.33   -161.25                                   
 500                                                                      
 500 REMARK: NULL                                                         
 525                                                                      
 525 SOLVENT                                                              
 525                                                                      
 525 THE SOLVENT MOLECULES HAVE CHAIN IDENTIFIERS THAT                    
 525 INDICATE THE POLYMER CHAIN WITH WHICH THEY ARE MOST                  
 525 CLOSELY ASSOCIATED. THE REMARK LISTS ALL THE SOLVENT                 
 525 MOLECULES WHICH ARE MORE THAN 5A AWAY FROM THE                       
 525 NEAREST POLYMER CHAIN (M = MODEL NUMBER;                             
 525 RES=RESIDUE NAME; C=CHAIN IDENTIFIER; SSEQ=SEQUENCE                  
 525 NUMBER; I=INSERTION CODE):                                           
 525                                                                      
 525  M RES CSSEQI                                                        
 525    HOH A1036        DISTANCE =  5.95 ANGSTROMS                       
 525    HOH A1037        DISTANCE =  6.11 ANGSTROMS                       
 525    HOH A1038        DISTANCE =  7.03 ANGSTROMS                       
 525    HOH A1039        DISTANCE =  8.38 ANGSTROMS                       
 800                                                                      
 800 SITE                                                                 
 800 SITE_IDENTIFIER: AC1                                                 
 800 EVIDENCE_CODE: SOFTWARE                                              
 800 SITE_DESCRIPTION: binding site for residue QFP A 401                 
 800                                                                      
 800 SITE_IDENTIFIER: AC2                                                 
 800 EVIDENCE_CODE: SOFTWARE                                              
 800 SITE_DESCRIPTION: binding site for residue CL A 402                  

>  <DBREF>
 6UQS A   27   397  UNP    Q541D8   Q541D8_PSEAI    27    397             

>  <SEQADV>
 6UQS GLY A   23  UNP  Q541D8              EXPRESSION TAG                 
 6UQS SER A   24  UNP  Q541D8              EXPRESSION TAG                 
 6UQS LYS A   25  UNP  Q541D8              EXPRESSION TAG                 
 6UQS LEU A   26  UNP  Q541D8              EXPRESSION TAG                 
 6UQS ALA A  397  UNP  Q541D8    ARG   397 ENGINEERED MUTATION            

>  <SEQRES>
   1 A  375  GLY SER LYS LEU GLY GLU ALA PRO ALA ASP ARG LEU LYS          
   2 A  375  ALA LEU VAL ASP ALA ALA VAL GLN PRO VAL MET LYS ALA          
   3 A  375  ASN ASP ILE PRO GLY LEU ALA VAL ALA ILE SER LEU LYS          
   4 A  375  GLY GLU PRO HIS TYR PHE SER TYR GLY LEU ALA SER LYS          
   5 A  375  GLU ASP GLY ARG ARG VAL THR PRO GLU THR LEU PHE GLU          
   6 A  375  ILE GLY SER VAL SER LYS THR PHE THR ALA THR LEU ALA          
   7 A  375  GLY TYR ALA LEU THR GLN ASP LYS MET ARG LEU ASP ASP          
   8 A  375  ARG ALA SER GLN HIS TRP PRO ALA LEU GLN GLY SER ARG          
   9 A  375  PHE ASP GLY ILE SER LEU LEU ASP LEU ALA THR TYR THR          
  10 A  375  ALA GLY GLY LEU PRO LEU GLN PHE PRO ASP SER VAL GLN          
  11 A  375  LYS ASP GLN ALA GLN ILE ARG ASP TYR TYR ARG GLN TRP          
  12 A  375  GLN PRO THR TYR ALA PRO GLY SER GLN ARG LEU TYR SER          
  13 A  375  ASN PRO SER ILE GLY LEU PHE GLY TYR LEU ALA ALA ARG          
  14 A  375  SER LEU GLY GLN PRO PHE GLU ARG LEU MET GLU GLN GLN          
  15 A  375  VAL PHE PRO ALA LEU GLY LEU GLU GLN THR HIS LEU ASP          
  16 A  375  VAL PRO GLU ALA ALA LEU ALA GLN TYR ALA GLN GLY TYR          
  17 A  375  GLY LYS ASP ASP ARG PRO LEU ARG VAL GLY PRO GLY PRO          
  18 A  375  LEU ASP ALA GLU GLY TYR GLY VAL LYS THR SER ALA ALA          
  19 A  375  ASP LEU LEU ARG PHE VAL ASP ALA ASN LEU HIS PRO GLU          
  20 A  375  ARG LEU ASP ARG PRO TRP ALA GLN ALA LEU ASP ALA THR          
  21 A  375  HIS ARG GLY TYR TYR LYS VAL GLY ASP MET THR GLN GLY          
  22 A  375  LEU GLY TRP GLU ALA TYR ASP TRP PRO ILE SER LEU LYS          
  23 A  375  ARG LEU GLN ALA GLY ASN SER THR PRO MET ALA LEU GLN          
  24 A  375  PRO HIS ARG ILE ALA ARG LEU PRO ALA PRO GLN ALA LEU          
  25 A  375  GLU GLY GLN ARG LEU LEU ASN LYS THR GLY SER THR ASN          
  26 A  375  GLY PHE GLY ALA TYR VAL ALA PHE VAL PRO GLY ARG ASP          
  27 A  375  LEU GLY LEU VAL ILE LEU ALA ASN ARG ASN TYR PRO ASN          
  28 A  375  ALA GLU ARG VAL LYS ILE ALA TYR ALA ILE LEU SER GLY          
  29 A  375  LEU GLU GLN GLN GLY LYS VAL PRO LEU LYS ALA                  

>  <HET>
 QFP  A 401      12                                                       
  CL  A 402       1                                                       

>  <HETNAM>
     QFP 2-HYDROXYETHYL HYDROGEN PHENYLBORONATE                           
      CL CHLORIDE ION                                                     

>  <FORMUL>
   2  QFP    C8 H11 B O3                                                  
   3   CL    CL 1-                                                        
   4  HOH   *539(H2 O)                                                    

>  <HELIX>
   1 AA1 GLU A   28  ASN A   49  1                                  22    
   2 AA2 VAL A   91  GLN A  106  1                                  16    
   3 AA3 ARG A  114  GLN A  123  5                                  10    
   4 AA4 SER A  125  ILE A  130  5                                   6    
   5 AA5 SER A  131  THR A  137  1                                   7    
   6 AA6 ASP A  154  TRP A  165  1                                  12    
   7 AA7 SER A  178  LEU A  193  1                                  16    
   8 AA8 PRO A  196  GLN A  204  1                                   9    
   9 AA9 GLN A  204  LEU A  209  1                                   6    
  10 AB1 PRO A  219  TYR A  226  5                                   8    
  11 AB2 GLY A  231  ARG A  235  5                                   5    
  12 AB3 LEU A  244  TYR A  249  1                                   6    
  13 AB4 ALA A  255  HIS A  267  1                                  13    
  14 AB5 PRO A  268  LEU A  271  5                                   4    
  15 AB6 ASP A  272  ALA A  281  1                                  10    
  16 AB7 SER A  306  ASN A  314  1                                   9    
  17 AB8 SER A  315  GLN A  321  1                                   7    
  18 AB9 PRO A  357  ASP A  360  5                                   4    
  19 AC1 PRO A  372  GLN A  389  1                                  18    

>  <SHEET>
   1 AA1 9 GLU A  63  GLY A  70  0                                        
   2 AA1 9 GLY A  53  LEU A  60 -1  N  VAL A  56   O  PHE A  67           
   3 AA1 9 LEU A 361  ALA A 367 -1  O  LEU A 366   N  ALA A  55           
   4 AA1 9 GLY A 350  VAL A 356 -1  N  VAL A 356   O  LEU A 361           
   5 AA1 9 ARG A 338  SER A 345 -1  N  GLY A 344   O  ALA A 351           
   6 AA1 9 GLU A 299  ASP A 302 -1  N  GLU A 299   O  ASN A 341           
   7 AA1 9 MET A 292  GLN A 294 -1  N  THR A 293   O  ALA A 300           
   8 AA1 9 ARG A 284  VAL A 289 -1  N  TYR A 286   O  GLN A 294           
   9 AA1 9 ALA A 326  ALA A 333 -1  O  GLN A 332   N  GLY A 285           
   1 AA2 3 LEU A  85  GLU A  87  0                                        
   2 AA2 3 LYS A 252  SER A 254 -1  O  THR A 253   N  PHE A  86           
   3 AA2 3 THR A 214  HIS A 215 -1  N  HIS A 215   O  LYS A 252           
   1 AA3 2 GLN A 174  ARG A 175  0                                        
   2 AA3 2 HIS A 323  ARG A 324 -1  O  HIS A 323   N  ARG A 175           

>  <LINK>
       OG  SER A  90                 B3  QFP A 401     1555   1555  1.44  

>  <CISPEP>
   1 TRP A  303    PRO A  304          0         3.58                     

>  <SITE>
   1 AC1  8 SER A  90  TYR A 177  TYR A 249  LYS A 342                    
   2 AC1  8 THR A 343  GLY A 344  SER A 345  HOH A 592                    
   1 AC2  3 GLN A 146  PHE A 147  ASN A 179                               

>  <ORIGX1>
      1.000000  0.000000  0.000000        0.00000                         

>  <ORIGX2>
      0.000000  1.000000  0.000000        0.00000                         

>  <ORIGX3>
      0.000000  0.000000  1.000000        0.00000                         

>  <SCALE1>
      0.022349  0.000000  0.000000        0.00000                         

>  <SCALE2>
      0.000000  0.013857  0.000000        0.00000                         

>  <SCALE3>
      0.000000  0.000000  0.009504        0.00000                         

>  <MASTER>
      334    0    2   19   14    0    3    6 3338    1   13   29          

$$$$
