start_structures/Ligand_Substrate/Ligand_Complex_Stripped/QQZ_5WAD.pdb
 OpenBabel08222315203D

 29 30  0  0  1  0  0  0  0  0999 V2000
  -60.0790   -8.7350  -38.1560 N   0  0  0  0  0  0  0  0  0  0  0  0
  -59.6320  -10.1030  -38.0830 C   0  0  2  0  0  0  0  0  0  0  0  0
  -58.1430  -10.3880  -38.2370 C   0  0  0  0  0  0  0  0  0  0  0  0
  -57.7550  -11.4750  -37.9840 O   0  0  0  0  0  0  0  0  0  0  0  0
  -60.4040  -10.9610  -39.0700 C   0  0  0  0  0  0  0  0  0  0  0  0
  -61.7300  -10.9390  -38.6090 O   0  0  0  0  0  0  0  0  0  0  0  0
  -62.6310  -10.5770  -39.6710 B   0  0  1  0  0  0  0  0  0  0  0  0
  -64.1090  -10.8440  -39.0740 C   0  0  0  0  0  0  0  0  0  0  0  0
  -64.9930   -9.8070  -39.5310 N   0  0  0  0  0  0  0  0  0  0  0  0
  -62.4080   -9.0800  -39.8910 O   0  0  0  0  0  0  0  0  0  0  0  0
  -62.3920  -11.3420  -40.8930 O   0  0  0  0  0  0  0  0  0  0  0  0
  -66.5750   -9.7280  -39.1990 S   0  0  0  0  0  0  0  0  0  0  0  0
  -67.0500  -10.8100  -38.3640 O   0  0  0  0  0  0  0  0  0  0  0  0
  -67.2310   -9.6910  -40.4660 O   0  0  0  0  0  0  0  0  0  0  0  0
  -66.7980   -8.3950  -38.3510 C   0  0  0  0  0  0  0  0  0  0  0  0
  -66.6530   -8.4320  -36.9650 C   0  0  0  0  0  0  0  0  0  0  0  0
  -66.8750   -7.2840  -36.1920 C   0  0  0  0  0  0  0  0  0  0  0  0
  -67.2600   -6.1170  -36.8550 C   0  0  0  0  0  0  0  0  0  0  0  0
  -67.3870   -6.1070  -38.2020 N   0  0  0  0  0  0  0  0  0  0  0  0
  -67.1680   -7.1960  -38.9650 C   0  0  0  0  0  0  0  0  0  0  0  0
  -67.5100   -4.8460  -36.1350 C   0  0  0  0  0  0  0  0  0  0  0  0
  -67.4920   -3.5560  -36.5430 N   0  0  0  0  0  0  0  0  0  0  0  0
  -67.7740   -2.7980  -35.3920 N   0  0  0  0  0  0  0  0  0  0  0  0
  -67.9830   -3.6420  -34.3030 N   0  0  0  0  0  0  0  0  0  0  0  0
  -67.7930   -4.9250  -34.8390 N   0  0  0  0  0  0  0  0  0  0  0  0
  -62.7130  -10.7100  -42.3620 P   0  0  0  0  0  0  0  0  0  0  0  0
  -63.9400   -9.8640  -42.0220 O   0  0  0  0  0  0  0  0  0  0  0  0
  -62.9250  -11.8560  -43.3360 O   0  0  0  0  0  0  0  0  0  0  0  0
  -61.5500   -9.9620  -42.9450 O   0  0  0  0  0  0  0  0  0  0  0  0
  2  1  1  6  0  0  0
  3  2  1  0  0  0  0
  3  4  2  0  0  0  0
  5  6  1  0  0  0  0
  5  2  1  0  0  0  0
  7 10  1  6  0  0  0
  7  8  1  0  0  0  0
  7  6  1  0  0  0  0
  9 12  1  0  0  0  0
  9  8  1  0  0  0  0
 11  7  1  0  0  0  0
 12 13  2  0  0  0  0
 12 15  1  0  0  0  0
 14 12  2  0  0  0  0
 15 16  1  0  0  0  0
 16 17  2  0  0  0  0
 18 17  1  0  0  0  0
 18 21  1  0  0  0  0
 19 18  2  0  0  0  0
 20 15  2  0  0  0  0
 20 19  1  0  0  0  0
 21 25  1  0  0  0  0
 22 21  2  0  0  0  0
 22 23  1  0  0  0  0
 23 24  1  0  0  0  0
 25 24  2  0  0  0  0
 26 27  1  0  0  0  0
 26 11  1  0  0  0  0
 28 26  2  0  0  0  0
 29 26  1  0  0  0  0
M  END
>  <HEADER>
    HYDROLASE/HYDROLASE INHIBITOR           26-JUN-17   5WAD              

>  <TITLE>
    ADC-7 IN COMPLEX WITH BORONIC ACID TRANSITION STATE INHIBITOR CR161   

>  <COMPND>
    MOL_ID: 1;                                                            
   2 MOLECULE: BETA-LACTAMASE;                                            
   3 CHAIN: A, B, C, D;                                                   
   4 EC: 3.5.2.6;                                                         
   5 ENGINEERED: YES                                                      

>  <SOURCE>
    MOL_ID: 1;                                                            
   2 ORGANISM_SCIENTIFIC: ACINETOBACTER BAUMANNII;                        
   3 ORGANISM_TAXID: 470;                                                 
   4 EXPRESSION_SYSTEM: ESCHERICHIA COLI;                                 
   5 EXPRESSION_SYSTEM_TAXID: 562;                                        
   6 EXPRESSION_SYSTEM_STRAIN: BL21(DE3);                                 
   7 EXPRESSION_SYSTEM_VECTOR_TYPE: PLASMID;                              
   8 EXPRESSION_SYSTEM_PLASMID: PET28A                                    

>  <KEYWDS>
    INHIBITOR, BETA-LACTAMASE, BATSI, ADC-7, ANTIMICROBIAL PROTEIN,       
   2 HYDROLASE-HYDROLASE INHIBITOR COMPLEX                                

>  <EXPDTA>
    X-RAY DIFFRACTION                                                     

>  <AUTHOR>
    R.A.POWERS,B.J.WALLAR                                                 

>  <REVDAT>
   4   11-DEC-19 5WAD    1       REMARK                                   
   3   21-MAR-18 5WAD    1       JRNL                                     
   2   20-DEC-17 5WAD    1       JRNL                                     
   1   06-DEC-17 5WAD    0                                                

>  <JRNL>
      AUTH   A.A.BOUZA,H.C.SWANSON,K.A.SMOLEN,A.L.VANDINE,M.A.TARACILA,   
      AUTH 2 C.ROMAGNOLI,E.CASELLI,F.PRATI,R.A.BONOMO,R.A.POWERS,         
      AUTH 3 B.J.WALLAR                                                   
      TITL   STRUCTURE-BASED ANALYSIS OF BORONIC ACIDS AS INHIBITORS OF   
      TITL 2 ACINETOBACTER-DERIVED CEPHALOSPORINASE-7, A UNIQUE CLASS C   
      TITL 3 BETA-LACTAMASE.                                              
      REF    ACS INFECT DIS                V.   4   325 2018              
      REFN                   ESSN 2373-8227                               
      PMID   29144724                                                     
      DOI    10.1021/ACSINFECDIS.7B00152                                  

>  <REMARK>
   2                                                                      
   2 RESOLUTION.    2.09 ANGSTROMS.                                       
   3                                                                      
   3 REFINEMENT.                                                          
   3   PROGRAM     : REFMAC 5.8.0158                                      
   3   AUTHORS     : MURSHUDOV,SKUBAK,LEBEDEV,PANNU,STEINER,              
   3               : NICHOLLS,WINN,LONG,VAGIN                             
   3                                                                      
   3    REFINEMENT TARGET : NULL                                          
   3                                                                      
   3  DATA USED IN REFINEMENT.                                            
   3   RESOLUTION RANGE HIGH (ANGSTROMS) : 2.09                           
   3   RESOLUTION RANGE LOW  (ANGSTROMS) : 97.84                          
   3   DATA CUTOFF            (SIGMA(F)) : NULL                           
   3   COMPLETENESS FOR RANGE        (%) : 99.3                           
   3   NUMBER OF REFLECTIONS             : 78433                          
   3                                                                      
   3  FIT TO DATA USED IN REFINEMENT.                                     
   3   CROSS-VALIDATION METHOD          : THROUGHOUT                      
   3   FREE R VALUE TEST SET SELECTION  : RANDOM                          
   3   R VALUE     (WORKING + TEST SET) : 0.218                           
   3   R VALUE            (WORKING SET) : 0.214                           
   3   FREE R VALUE                     : 0.286                           
   3   FREE R VALUE TEST SET SIZE   (%) : 5.000                           
   3   FREE R VALUE TEST SET COUNT      : 4124                            
   3                                                                      
   3  FIT IN THE HIGHEST RESOLUTION BIN.                                  
   3   TOTAL NUMBER OF BINS USED           : 20                           
   3   BIN RESOLUTION RANGE HIGH       (A) : 2.09                         
   3   BIN RESOLUTION RANGE LOW        (A) : 2.15                         
   3   REFLECTION IN BIN     (WORKING SET) : 5755                         
   3   BIN COMPLETENESS (WORKING+TEST) (%) : 99.80                        
   3   BIN R VALUE           (WORKING SET) : 0.2930                       
   3   BIN FREE R VALUE SET COUNT          : 313                          
   3   BIN FREE R VALUE                    : 0.3250                       
   3                                                                      
   3  NUMBER OF NON-HYDROGEN ATOMS USED IN REFINEMENT.                    
   3   PROTEIN ATOMS            : 10785                                   
   3   NUCLEIC ACID ATOMS       : 0                                       
   3   HETEROGEN ATOMS          : 97                                      
   3   SOLVENT ATOMS            : 370                                     
   3                                                                      
   3  B VALUES.                                                           
   3   FROM WILSON PLOT           (A**2) : NULL                           
   3   MEAN B VALUE      (OVERALL, A**2) : 36.91                          
   3   OVERALL ANISOTROPIC B VALUE.                                       
   3    B11 (A**2) : 0.02000                                              
   3    B22 (A**2) : -2.00000                                             
   3    B33 (A**2) : 0.84000                                              
   3    B12 (A**2) : 0.00000                                              
   3    B13 (A**2) : 1.04000                                              
   3    B23 (A**2) : 0.00000                                              
   3                                                                      
   3  ESTIMATED OVERALL COORDINATE ERROR.                                 
   3   ESU BASED ON R VALUE                            (A): 0.266         
   3   ESU BASED ON FREE R VALUE                       (A): 0.231         
   3   ESU BASED ON MAXIMUM LIKELIHOOD                 (A): 0.189         
   3   ESU FOR B VALUES BASED ON MAXIMUM LIKELIHOOD (A**2): 7.204         
   3                                                                      
   3 CORRELATION COEFFICIENTS.                                            
   3   CORRELATION COEFFICIENT FO-FC      : 0.941                         
   3   CORRELATION COEFFICIENT FO-FC FREE : 0.896                         
   3                                                                      
   3  RMS DEVIATIONS FROM IDEAL VALUES        COUNT    RMS    WEIGHT      
   3   BOND LENGTHS REFINED ATOMS        (A): 11163 ; 0.015 ; 0.020       
   3   BOND LENGTHS OTHERS               (A):  9887 ; 0.002 ; 0.020       
   3   BOND ANGLES REFINED ATOMS   (DEGREES): 15228 ; 1.790 ; 1.970       
   3   BOND ANGLES OTHERS          (DEGREES): 23013 ; 1.081 ; 3.000       
   3   TORSION ANGLES, PERIOD 1    (DEGREES):  1399 ; 7.241 ; 5.000       
   3   TORSION ANGLES, PERIOD 2    (DEGREES):   473 ;42.728 ;25.539       
   3   TORSION ANGLES, PERIOD 3    (DEGREES):  1731 ;16.084 ;15.000       
   3   TORSION ANGLES, PERIOD 4    (DEGREES):    22 ;19.800 ;15.000       
   3   CHIRAL-CENTER RESTRAINTS       (A**3):  1686 ; 0.106 ; 0.200       
   3   GENERAL PLANES REFINED ATOMS      (A): 12465 ; 0.008 ; 0.021       
   3   GENERAL PLANES OTHERS             (A):  2137 ; 0.002 ; 0.020       
   3   NON-BONDED CONTACTS REFINED ATOMS (A):  NULL ;  NULL ;  NULL       
   3   NON-BONDED CONTACTS OTHERS        (A):  NULL ;  NULL ;  NULL       
   3   NON-BONDED TORSION REFINED ATOMS  (A):  NULL ;  NULL ;  NULL       
   3   NON-BONDED TORSION OTHERS         (A):  NULL ;  NULL ;  NULL       
   3   H-BOND (X...Y) REFINED ATOMS      (A):  NULL ;  NULL ;  NULL       
   3   H-BOND (X...Y) OTHERS             (A):  NULL ;  NULL ;  NULL       
   3   POTENTIAL METAL-ION REFINED ATOMS (A):  NULL ;  NULL ;  NULL       
   3   POTENTIAL METAL-ION OTHERS        (A):  NULL ;  NULL ;  NULL       
   3   SYMMETRY VDW REFINED ATOMS        (A):  NULL ;  NULL ;  NULL       
   3   SYMMETRY VDW OTHERS               (A):  NULL ;  NULL ;  NULL       
   3   SYMMETRY H-BOND REFINED ATOMS     (A):  NULL ;  NULL ;  NULL       
   3   SYMMETRY H-BOND OTHERS            (A):  NULL ;  NULL ;  NULL       
   3   SYMMETRY METAL-ION REFINED ATOMS  (A):  NULL ;  NULL ;  NULL       
   3   SYMMETRY METAL-ION OTHERS         (A):  NULL ;  NULL ;  NULL       
   3                                                                      
   3  ISOTROPIC THERMAL FACTOR RESTRAINTS.     COUNT   RMS    WEIGHT      
   3   MAIN-CHAIN BOND REFINED ATOMS  (A**2):  5620 ; 2.923 ; 3.783       
   3   MAIN-CHAIN BOND OTHER ATOMS    (A**2):  5619 ; 2.922 ; 3.782       
   3   MAIN-CHAIN ANGLE REFINED ATOMS (A**2):  7011 ; 4.214 ; 5.656       
   3   MAIN-CHAIN ANGLE OTHER ATOMS   (A**2):  7012 ; 4.213 ; 5.656       
   3   SIDE-CHAIN BOND REFINED ATOMS  (A**2):  5543 ; 2.942 ; 3.989       
   3   SIDE-CHAIN BOND OTHER ATOMS    (A**2):  5537 ; 2.935 ; 3.987       
   3   SIDE-CHAIN ANGLE REFINED ATOMS (A**2):  NULL ;  NULL ;  NULL       
   3   SIDE-CHAIN ANGLE OTHER ATOMS   (A**2):  8209 ; 4.424 ; 5.900       
   3   LONG RANGE B REFINED ATOMS     (A**2): 12311 ; 6.188 ;44.840       
   3   LONG RANGE B OTHER ATOMS       (A**2): 12274 ; 6.172 ;44.823       
   3                                                                      
   3 ANISOTROPIC THERMAL FACTOR RESTRAINTS.    COUNT   RMS   WEIGHT       
   3   RIGID-BOND RESTRAINTS          (A**2):  NULL ;  NULL ;  NULL       
   3   SPHERICITY; FREE ATOMS         (A**2):  NULL ;  NULL ;  NULL       
   3   SPHERICITY; BONDED ATOMS       (A**2):  NULL ;  NULL ;  NULL       
   3                                                                      
   3  NCS RESTRAINTS STATISTICS                                           
   3   NUMBER OF DIFFERENT NCS GROUPS : NULL                              
   3                                                                      
   3  TLS DETAILS                                                         
   3   NUMBER OF TLS GROUPS  : NULL                                       
   3                                                                      
   3  BULK SOLVENT MODELLING.                                             
   3   METHOD USED : NULL                                                 
   3   PARAMETERS FOR MASK CALCULATION                                    
   3   VDW PROBE RADIUS   : 1.20                                          
   3   ION PROBE RADIUS   : 0.80                                          
   3   SHRINKAGE RADIUS   : 0.80                                          
   3                                                                      
   3  OTHER REFINEMENT REMARKS: HYDROGENS HAVE BEEN ADDED IN THE RIDING   
   3   POSITIONS                                                          
   4                                                                      
   4 5WAD COMPLIES WITH FORMAT V. 3.30, 13-JUL-11                         
 100                                                                      
 100 THIS ENTRY HAS BEEN PROCESSED BY RCSB ON 05-JUL-17.                  
 100 THE DEPOSITION ID IS D_1000228581.                                   
 200                                                                      
 200 EXPERIMENTAL DETAILS                                                 
 200  EXPERIMENT TYPE                : X-RAY DIFFRACTION                  
 200  DATE OF DATA COLLECTION        : 12-AUG-13                          
 200  TEMPERATURE           (KELVIN) : 100                                
 200  PH                             : 5.0                                
 200  NUMBER OF CRYSTALS USED        : 1                                  
 200                                                                      
 200  SYNCHROTRON              (Y/N) : Y                                  
 200  RADIATION SOURCE               : APS                                
 200  BEAMLINE                       : 21-ID-D                            
 200  X-RAY GENERATOR MODEL          : NULL                               
 200  MONOCHROMATIC OR LAUE    (M/L) : M                                  
 200  WAVELENGTH OR RANGE        (A) : 1.07820                            
 200  MONOCHROMATOR                  : NULL                               
 200  OPTICS                         : NULL                               
 200                                                                      
 200  DETECTOR TYPE                  : CCD                                
 200  DETECTOR MANUFACTURER          : MARMOSAIC 300 MM CCD               
 200  INTENSITY-INTEGRATION SOFTWARE : XDS                                
 200  DATA SCALING SOFTWARE          : XSCALE                             
 200                                                                      
 200  NUMBER OF UNIQUE REFLECTIONS   : 82578                              
 200  RESOLUTION RANGE HIGH      (A) : 2.090                              
 200  RESOLUTION RANGE LOW       (A) : 97.845                             
 200  REJECTION CRITERIA  (SIGMA(I)) : NULL                               
 200                                                                      
 200 OVERALL.                                                             
 200  COMPLETENESS FOR RANGE     (%) : 99.3                               
 200  DATA REDUNDANCY                : 3.700                              
 200  R MERGE                    (I) : 0.08400                            
 200  R SYM                      (I) : NULL                               
 200  <I/SIGMA(I)> FOR THE DATA SET  : 11.5000                            
 200                                                                      
 200 IN THE HIGHEST RESOLUTION SHELL.                                     
 200  HIGHEST RESOLUTION SHELL, RANGE HIGH (A) : 2.09                     
 200  HIGHEST RESOLUTION SHELL, RANGE LOW  (A) : 2.10                     
 200  COMPLETENESS FOR SHELL     (%) : 99.8                               
 200  DATA REDUNDANCY IN SHELL       : 3.70                               
 200  R MERGE FOR SHELL          (I) : 0.66600                            
 200  R SYM FOR SHELL            (I) : NULL                               
 200  <I/SIGMA(I)> FOR SHELL         : 2.000                              
 200                                                                      
 200 DIFFRACTION PROTOCOL: SINGLE WAVELENGTH                              
 200 METHOD USED TO DETERMINE THE STRUCTURE: MOLECULAR REPLACEMENT        
 200 SOFTWARE USED: PHASER                                                
 200 STARTING MODEL: 4U0T                                                 
 200                                                                      
 200 REMARK: NULL                                                         
 280                                                                      
 280 CRYSTAL                                                              
 280 SOLVENT CONTENT, VS   (%): 44.74                                     
 280 MATTHEWS COEFFICIENT, VM (ANGSTROMS**3/DA): 2.23                     
 280                                                                      
 280 CRYSTALLIZATION CONDITIONS: ADC-7 (3MG/ML) IN 25% W/V POLYETHYLENE   
 280  GLYCOL (PEG) 1500, 0.1 M SUCCINATE/ PHOSPHATE/ GLYCINE, PH 5.0,     
 280  VAPOR DIFFUSION, HANGING DROP, TEMPERATURE 298K                     
 290                                                                      
 290 CRYSTALLOGRAPHIC SYMMETRY                                            
 290 SYMMETRY OPERATORS FOR SPACE GROUP: P 1 21 1                         
 290                                                                      
 290      SYMOP   SYMMETRY                                                
 290     NNNMMM   OPERATOR                                                
 290       1555   X,Y,Z                                                   
 290       2555   -X,Y+1/2,-Z                                             
 290                                                                      
 290     WHERE NNN -> OPERATOR NUMBER                                     
 290           MMM -> TRANSLATION VECTOR                                  
 290                                                                      
 290 CRYSTALLOGRAPHIC SYMMETRY TRANSFORMATIONS                            
 290 THE FOLLOWING TRANSFORMATIONS OPERATE ON THE ATOM/HETATM             
 290 RECORDS IN THIS ENTRY TO PRODUCE CRYSTALLOGRAPHICALLY                
 290 RELATED MOLECULES.                                                   
 290   SMTRY1   1  1.000000  0.000000  0.000000        0.00000            
 290   SMTRY2   1  0.000000  1.000000  0.000000        0.00000            
 290   SMTRY3   1  0.000000  0.000000  1.000000        0.00000            
 290   SMTRY1   2 -1.000000  0.000000  0.000000        0.00000            
 290   SMTRY2   2  0.000000  1.000000  0.000000       40.73500            
 290   SMTRY3   2  0.000000  0.000000 -1.000000        0.00000            
 290                                                                      
 290 REMARK: NULL                                                         
 300                                                                      
 300 BIOMOLECULE: 1, 2, 3, 4                                              
 300 SEE REMARK 350 FOR THE AUTHOR PROVIDED AND/OR PROGRAM                
 300 GENERATED ASSEMBLY INFORMATION FOR THE STRUCTURE IN                  
 300 THIS ENTRY. THE REMARK MAY ALSO PROVIDE INFORMATION ON               
 300 BURIED SURFACE AREA.                                                 
 350                                                                      
 350 COORDINATES FOR A COMPLETE MULTIMER REPRESENTING THE KNOWN           
 350 BIOLOGICALLY SIGNIFICANT OLIGOMERIZATION STATE OF THE                
 350 MOLECULE CAN BE GENERATED BY APPLYING BIOMT TRANSFORMATIONS          
 350 GIVEN BELOW.  BOTH NON-CRYSTALLOGRAPHIC AND                          
 350 CRYSTALLOGRAPHIC OPERATIONS ARE GIVEN.                               
 350                                                                      
 350 BIOMOLECULE: 1                                                       
 350 AUTHOR DETERMINED BIOLOGICAL UNIT: MONOMERIC                         
 350 SOFTWARE DETERMINED QUATERNARY STRUCTURE: MONOMERIC                  
 350 SOFTWARE USED: PISA                                                  
 350 APPLY THE FOLLOWING TO CHAINS: A                                     
 350   BIOMT1   1  1.000000  0.000000  0.000000        0.00000            
 350   BIOMT2   1  0.000000  1.000000  0.000000        0.00000            
 350   BIOMT3   1  0.000000  0.000000  1.000000        0.00000            
 350                                                                      
 350 BIOMOLECULE: 2                                                       
 350 AUTHOR DETERMINED BIOLOGICAL UNIT: MONOMERIC                         
 350 SOFTWARE DETERMINED QUATERNARY STRUCTURE: MONOMERIC                  
 350 SOFTWARE USED: PISA                                                  
 350 APPLY THE FOLLOWING TO CHAINS: B                                     
 350   BIOMT1   1  1.000000  0.000000  0.000000        0.00000            
 350   BIOMT2   1  0.000000  1.000000  0.000000        0.00000            
 350   BIOMT3   1  0.000000  0.000000  1.000000        0.00000            
 350                                                                      
 350 BIOMOLECULE: 3                                                       
 350 AUTHOR DETERMINED BIOLOGICAL UNIT: MONOMERIC                         
 350 SOFTWARE DETERMINED QUATERNARY STRUCTURE: MONOMERIC                  
 350 SOFTWARE USED: PISA                                                  
 350 APPLY THE FOLLOWING TO CHAINS: C                                     
 350   BIOMT1   1  1.000000  0.000000  0.000000        0.00000            
 350   BIOMT2   1  0.000000  1.000000  0.000000        0.00000            
 350   BIOMT3   1  0.000000  0.000000  1.000000        0.00000            
 350                                                                      
 350 BIOMOLECULE: 4                                                       
 350 AUTHOR DETERMINED BIOLOGICAL UNIT: MONOMERIC                         
 350 SOFTWARE DETERMINED QUATERNARY STRUCTURE: MONOMERIC                  
 350 SOFTWARE USED: PISA                                                  
 350 APPLY THE FOLLOWING TO CHAINS: D                                     
 350   BIOMT1   1  1.000000  0.000000  0.000000        0.00000            
 350   BIOMT2   1  0.000000  1.000000  0.000000        0.00000            
 350   BIOMT3   1  0.000000  0.000000  1.000000        0.00000            
 465                                                                      
 465 MISSING RESIDUES                                                     
 465 THE FOLLOWING RESIDUES WERE NOT LOCATED IN THE                       
 465 EXPERIMENT. (M=MODEL NUMBER; RES=RESIDUE NAME; C=CHAIN               
 465 IDENTIFIER; SSSEQ=SEQUENCE NUMBER; I=INSERTION CODE.)                
 465                                                                      
 465   M RES C SSSEQI                                                     
 465     MET A    -1                                                      
 465     ASP A     0                                                      
 465     ASN A     1                                                      
 465     THR A     2                                                      
 465     PRO A     3                                                      
 465     LYS A     4                                                      
 465     ASP A     5                                                      
 465     GLN A     6                                                      
 465     LYS A   359                                                      
 465     MET B    -1                                                      
 465     ASP B     0                                                      
 465     ASN B     1                                                      
 465     LYS B   359                                                      
 465     MET C    -1                                                      
 465     ASP C     0                                                      
 465     ASN C     1                                                      
 465     THR C     2                                                      
 465     TYR C   147                                                      
 465     ARG C   148                                                      
 465     LYS C   359                                                      
 465     MET D    -1                                                      
 465     ASP D     0                                                      
 465     ASN D     1                                                      
 465     THR D     2                                                      
 465     THR D    88                                                      
 465     PRO D    89                                                      
 465     LYS D    97                                                      
 465     ASN D    98                                                      
 465     THR D    99                                                      
 465     GLN D   103                                                      
 465     SER D   302                                                      
 465     LYS D   303                                                      
 465     GLU D   304                                                      
 465     PRO D   305                                                      
 465     SER D   306                                                      
 465     ILE D   357                                                      
 465     LYS D   358                                                      
 465     LYS D   359                                                      
 470                                                                      
 470 MISSING ATOM                                                         
 470 THE FOLLOWING RESIDUES HAVE MISSING ATOMS (M=MODEL NUMBER;           
 470 RES=RESIDUE NAME; C=CHAIN IDENTIFIER; SSEQ=SEQUENCE NUMBER;          
 470 I=INSERTION CODE):                                                   
 470   M RES CSSEQI  ATOMS                                                
 470     LYS A  10    CG   CD   CE   NZ                                   
 470     GLU A  21    CG   CD   OE1  OE2                                  
 470     LYS A  37    CG   CD   CE   NZ                                   
 470     LYS A  52    CG   CD   CE   NZ                                   
 470     LYS A  80    CG   CD   CE   NZ                                   
 470     LEU A  96    CG   CD1  CD2                                       
 470     LYS A  97    CG   CD   CE   NZ                                   
 470     THR A  99    OG1  CG2                                            
 470     THR A 127    OG1  CG2                                            
 470     GLN A 129    CG   CD   OE1  NE2                                  
 470     GLN A 130    CG   CD   OE1  NE2                                  
 470     LYS A 136    CG   CD   CE   NZ                                   
 470     ASN A 167    CG   OD1  ND2                                       
 470     LYS A 168    CG   CD   CE   NZ                                   
 470     LYS A 185    CG   CD   CE   NZ                                   
 470     LYS A 193    CG   CD   CE   NZ                                   
 470     GLU A 206    CG   CD   OE1  OE2                                  
 470     ASP A 247    CG   OD1  OD2                                       
 470     GLU A 289    CG   CD   OE1  OE2                                  
 470     GLN A 290    CG   CD   OE1  NE2                                  
 470     LYS A 294    CG   CD   CE   NZ                                   
 470     LYS A 303    CG   CD   CE   NZ                                   
 470     LYS A 328    CG   CD   CE   NZ                                   
 470     GLU A 344    CG   CD   OE1  OE2                                  
 470     LYS B  10    CG   CD   CE   NZ                                   
 470     GLU B  21    CG   CD   OE1  OE2                                  
 470     ASN B  36    CG   OD1  ND2                                       
 470     LYS B  52    CG   CD   CE   NZ                                   
 470     LYS B  97    CG   CD   CE   NZ                                   
 470     GLN B 129    CG   CD   OE1  NE2                                  
 470     LYS B 185    CG   CD   CE   NZ                                   
 470     LYS B 193    CG   CD   CE   NZ                                   
 470     LYS B 303    CG   CD   CE   NZ                                   
 470     GLU B 344    CG   CD   OE1  OE2                                  
 470     LYS B 358    CG   CD   CE   NZ                                   
 470     LYS C   4    CG   CD   CE   NZ                                   
 470     GLN C   6    CG   CD   OE1  NE2                                  
 470     GLU C   7    CG   CD   OE1  OE2                                  
 470     LYS C  10    CG   CD   CE   NZ                                   
 470     GLU C  21    CG   CD   OE1  OE2                                  
 470     LYS C  37    CG   CD   CE   NZ                                   
 470     LYS C  80    CG   CD   CE   NZ                                   
 470     LYS C  82    CG   CD   CE   NZ                                   
 470     THR C  88    OG1  CG2                                            
 470     LYS C  94    CG   CD   CE   NZ                                   
 470     GLU C  95    CG   CD   OE1  OE2                                  
 470     LEU C  96    CG   CD1  CD2                                       
 470     LYS C  97    CG   CD   CE   NZ                                   
 470     THR C  99    OG1  CG2                                            
 470     ILE C 101    CG1  CG2  CD1                                       
 470     GLN C 103    CG   CD   OE1  NE2                                  
 470     VAL C 104    CG1  CG2                                            
 470     GLN C 108    CG   CD   OE1  NE2                                  
 470     GLU C 124    CG   CD   OE1  OE2                                  
 470     GLN C 129    CG   CD   OE1  NE2                                  
 470     VAL C 131    CG1  CG2                                            
 470     GLU C 146    CG   CD   OE1  OE2                                  
 470     LEU C 157    CG   CD1  CD2                                       
 470     VAL C 161    CG1  CG2                                            
 470     LYS C 168    CG   CD   CE   NZ                                   
 470     LYS C 193    CG   CD   CE   NZ                                   
 470     GLN C 257    CG   CD   OE1  NE2                                  
 470     ASP C 285    CG   OD1  OD2                                       
 470     LYS C 297    CG   CD   CE   NZ                                   
 470     VAL C 298    CG1  CG2                                            
 470     ILE C 301    CG1  CG2  CD1                                       
 470     GLU C 304    CG   CD   OE1  OE2                                  
 470     SER C 306    OG                                                  
 470     GLU C 344    CG   CD   OE1  OE2                                  
 470     LYS C 358    CG   CD   CE   NZ                                   
 470     LYS D   4    CG   CD   CE   NZ                                   
 470     ASP D   5    CG   OD1  OD2                                       
 470     GLN D   6    CG   CD   OE1  NE2                                  
 470     GLU D   7    CG   CD   OE1  OE2                                  
 470     ILE D   8    CG1  CG2  CD1                                       
 470     LYS D  10    CG   CD   CE   NZ                                   
 470     GLN D  14    CG   CD   OE1  NE2                                  
 470     GLU D  21    CG   CD   OE1  OE2                                  
 470     ILE D  33    CG1  CG2  CD1                                       
 470     ASN D  35    CG   OD1  ND2                                       
 470     ASN D  36    CG   OD1  ND2                                       
 470     LYS D  37    CG   CD   CE   NZ                                   
 470     LYS D  78    CG   CD   CE   NZ                                   
 470     LYS D  80    CG   CD   CE   NZ                                   
 470     ILE D  83    CG1  CG2  CD1                                       
 470     ASP D  87    CG   OD1  OD2                                       
 470     LYS D  94    CG   CD   CE   NZ                                   
 470     GLU D  95    CG   CD   OE1  OE2                                  
 470     LEU D  96    CG   CD1  CD2                                       
 470     ILE D 101    CG1  CG2  CD1                                       
 470     LYS D 139    CG   CD   CE   NZ                                   
 470     GLU D 146    CG   CD   OE1  OE2                                  
 470     SER D 154    OG                                                  
 470     SER D 165    OG                                                  
 470     LYS D 176    CG   CD   CE   NZ                                   
 470     LYS D 185    CG   CD   CE   NZ                                   
 470     LYS D 193    CG   CD   CE   NZ                                   
 470     ASP D 247    CG   OD1  OD2                                       
 470     ILE D 248    CG1  CG2  CD1                                       
 470     GLN D 249    CG   CD   OE1  NE2                                  
 470     ARG D 250    CG   CD   NE   CZ   NH1  NH2                        
 470     GLN D 257    CG   CD   OE1  NE2                                  
 470     GLN D 261    CG   CD   OE1  NE2                                  
 470     GLU D 289    CG   CD   OE1  OE2                                  
 470     LYS D 294    CG   CD   CE   NZ                                   
 470     LYS D 297    CG   CD   CE   NZ                                   
 470     ILE D 301    CG1  CG2  CD1                                       
 470     VAL D 307    CG1  CG2                                            
 470     LYS D 308    CG   CD   CE   NZ                                   
 470     LYS D 328    CG   CD   CE   NZ                                   
 470     ASN D 330    CG   OD1  ND2                                       
 470     VAL D 334    CG1  CG2                                            
 470     GLU D 344    CG   CD   OE1  OE2                                  
 470     VAL D 353    CG1  CG2                                            
 500                                                                      
 500 GEOMETRY AND STEREOCHEMISTRY                                         
 500 SUBTOPIC: CLOSE CONTACTS IN SAME ASYMMETRIC UNIT                     
 500                                                                      
 500 THE FOLLOWING ATOMS ARE IN CLOSE CONTACT.                            
 500                                                                      
 500  ATM1  RES C  SSEQI   ATM2  RES C  SSEQI           DISTANCE          
 500   OD2  ASP B    87     OH   TYR B    92              2.07            
 500   OH   TYR A    23     OE2  GLU A   345              2.16            
 500   O    VAL D    54     O    HOH D   501              2.16            
 500                                                                      
 500 REMARK: NULL                                                         
 500                                                                      
 500 GEOMETRY AND STEREOCHEMISTRY                                         
 500 SUBTOPIC: TORSION ANGLES                                             
 500                                                                      
 500 TORSION ANGLES OUTSIDE THE EXPECTED RAMACHANDRAN REGIONS:            
 500 (M=MODEL NUMBER; RES=RESIDUE NAME; C=CHAIN IDENTIFIER;               
 500 SSEQ=SEQUENCE NUMBER; I=INSERTION CODE).                             
 500                                                                      
 500 STANDARD TABLE:                                                      
 500 FORMAT:(10X,I3,1X,A3,1X,A1,I4,A1,4X,F7.2,3X,F7.2)                    
 500                                                                      
 500 EXPECTED VALUES: GJ KLEYWEGT AND TA JONES (1996). PHI/PSI-           
 500 CHOLOGY: RAMACHANDRAN REVISITED. STRUCTURE 4, 1395 - 1400            
 500                                                                      
 500  M RES CSSEQI        PSI       PHI                                   
 500    ASN A  35       47.48     39.57                                   
 500    ASN A  98       14.85   -146.53                                   
 500    PHE A 121      173.43    -52.46                                   
 500    GLN A 126      -50.46   -159.39                                   
 500    PRO A 140      174.73    -47.00                                   
 500    LYS A 141      -84.06   -156.11                                   
 500    ASN A 207       36.05     36.77                                   
 500    TYR A 222       20.43   -165.25                                   
 500    ASN A 240       54.66   -140.48                                   
 500    ASN A 263     -117.31     65.17                                   
 500    ALA A 268     -157.99   -112.36                                   
 500    SER A 302      -65.14   -105.89                                   
 500    ILE A 357       30.18    -98.95                                   
 500    ASN B 116       48.78   -160.24                                   
 500    GLN B 126      -51.26   -124.75                                   
 500    LYS B 141      -73.34   -142.82                                   
 500    TYR B 222       21.54   -157.30                                   
 500    ASN B 263     -116.90     50.62                                   
 500    GLU C  95      -11.14    -48.39                                   
 500    TYR C 112       31.61     71.40                                   
 500    GLN C 126      -66.07   -142.10                                   
 500    LYS C 141      -92.38   -127.19                                   
 500    TYR C 222       34.66   -150.75                                   
 500    ASN C 263     -130.90     53.59                                   
 500    ASN C 355       -3.11    -57.05                                   
 500    ASP D  24       33.92     75.17                                   
 500    TYR D 112       25.87     81.56                                   
 500    SER D 114      -44.02    -29.95                                   
 500    ASN D 116       57.45   -156.22                                   
 500    GLN D 126      -58.45   -143.02                                   
 500    LYS D 141      -77.22   -131.97                                   
 500    PRO D 143      101.72    -37.86                                   
 500    SER D 154      -72.76    -53.05                                   
 500    THR D 177      -57.38   -122.85                                   
 500    TYR D 222       21.29   -160.36                                   
 500    ASN D 263     -138.39     57.68                                   
 500                                                                      
 500 REMARK: NULL                                                         

>  <DBREF>
 5WAD A    0   359  UNP    Q6DRA1   Q6DRA1_ACIBA    24    383             
 5WAD B    0   359  UNP    Q6DRA1   Q6DRA1_ACIBA    24    383             
 5WAD C    0   359  UNP    Q6DRA1   Q6DRA1_ACIBA    24    383             
 5WAD D    0   359  UNP    Q6DRA1   Q6DRA1_ACIBA    24    383             

>  <SEQADV>
 5WAD MET A   -1  UNP  Q6DRA1              EXPRESSION TAG                 
 5WAD MET B   -1  UNP  Q6DRA1              EXPRESSION TAG                 
 5WAD MET C   -1  UNP  Q6DRA1              EXPRESSION TAG                 
 5WAD MET D   -1  UNP  Q6DRA1              EXPRESSION TAG                 

>  <SEQRES>
   1 A  361  MET ASP ASN THR PRO LYS ASP GLN GLU ILE LYS LYS LEU          
   2 A  361  VAL ASP GLN ASN PHE LYS PRO LEU LEU GLU LYS TYR ASP          
   3 A  361  VAL PRO GLY MET ALA VAL GLY VAL ILE GLN ASN ASN LYS          
   4 A  361  LYS TYR GLU MET TYR TYR GLY LEU GLN SER VAL GLN ASP          
   5 A  361  LYS LYS ALA VAL ASN SER ASN THR ILE PHE GLU LEU GLY          
   6 A  361  SER VAL SER LYS LEU PHE THR ALA THR ALA GLY GLY TYR          
   7 A  361  ALA LYS ASN LYS GLY LYS ILE SER PHE ASP ASP THR PRO          
   8 A  361  GLY LYS TYR TRP LYS GLU LEU LYS ASN THR PRO ILE ASP          
   9 A  361  GLN VAL ASN LEU LEU GLN LEU ALA THR TYR THR SER GLY          
  10 A  361  ASN LEU ALA LEU GLN PHE PRO ASP GLU VAL GLN THR ASP          
  11 A  361  GLN GLN VAL LEU THR PHE PHE LYS ASP TRP LYS PRO LYS          
  12 A  361  ASN PRO ILE GLY GLU TYR ARG GLN TYR SER ASN PRO SER          
  13 A  361  ILE GLY LEU PHE GLY LYS VAL VAL ALA LEU SER MET ASN          
  14 A  361  LYS PRO PHE ASP GLN VAL LEU GLU LYS THR ILE PHE PRO          
  15 A  361  ALA LEU GLY LEU LYS HIS SER TYR VAL ASN VAL PRO LYS          
  16 A  361  THR GLN MET GLN ASN TYR ALA PHE GLY TYR ASN GLN GLU          
  17 A  361  ASN GLN PRO ILE ARG VAL ASN PRO GLY PRO LEU ASP ALA          
  18 A  361  PRO ALA TYR GLY VAL LYS SER THR LEU PRO ASP MET LEU          
  19 A  361  SER PHE ILE HIS ALA ASN LEU ASN PRO GLN LYS TYR PRO          
  20 A  361  THR ASP ILE GLN ARG ALA ILE ASN GLU THR HIS GLN GLY          
  21 A  361  ARG TYR GLN VAL ASN THR MET TYR GLN ALA LEU GLY TRP          
  22 A  361  GLU GLU PHE SER TYR PRO ALA THR LEU GLN THR LEU LEU          
  23 A  361  ASP SER ASN SER GLU GLN ILE VAL MET LYS PRO ASN LYS          
  24 A  361  VAL THR ALA ILE SER LYS GLU PRO SER VAL LYS MET TYR          
  25 A  361  HIS LYS THR GLY SER THR SER GLY PHE GLY THR TYR VAL          
  26 A  361  VAL PHE ILE PRO LYS GLU ASN ILE GLY LEU VAL MET LEU          
  27 A  361  THR ASN LYS ARG ILE PRO ASN GLU GLU ARG ILE LYS ALA          
  28 A  361  ALA TYR VAL VAL LEU ASN ALA ILE LYS LYS                      
   1 B  361  MET ASP ASN THR PRO LYS ASP GLN GLU ILE LYS LYS LEU          
   2 B  361  VAL ASP GLN ASN PHE LYS PRO LEU LEU GLU LYS TYR ASP          
   3 B  361  VAL PRO GLY MET ALA VAL GLY VAL ILE GLN ASN ASN LYS          
   4 B  361  LYS TYR GLU MET TYR TYR GLY LEU GLN SER VAL GLN ASP          
   5 B  361  LYS LYS ALA VAL ASN SER ASN THR ILE PHE GLU LEU GLY          
   6 B  361  SER VAL SER LYS LEU PHE THR ALA THR ALA GLY GLY TYR          
   7 B  361  ALA LYS ASN LYS GLY LYS ILE SER PHE ASP ASP THR PRO          
   8 B  361  GLY LYS TYR TRP LYS GLU LEU LYS ASN THR PRO ILE ASP          
   9 B  361  GLN VAL ASN LEU LEU GLN LEU ALA THR TYR THR SER GLY          
  10 B  361  ASN LEU ALA LEU GLN PHE PRO ASP GLU VAL GLN THR ASP          
  11 B  361  GLN GLN VAL LEU THR PHE PHE LYS ASP TRP LYS PRO LYS          
  12 B  361  ASN PRO ILE GLY GLU TYR ARG GLN TYR SER ASN PRO SER          
  13 B  361  ILE GLY LEU PHE GLY LYS VAL VAL ALA LEU SER MET ASN          
  14 B  361  LYS PRO PHE ASP GLN VAL LEU GLU LYS THR ILE PHE PRO          
  15 B  361  ALA LEU GLY LEU LYS HIS SER TYR VAL ASN VAL PRO LYS          
  16 B  361  THR GLN MET GLN ASN TYR ALA PHE GLY TYR ASN GLN GLU          
  17 B  361  ASN GLN PRO ILE ARG VAL ASN PRO GLY PRO LEU ASP ALA          
  18 B  361  PRO ALA TYR GLY VAL LYS SER THR LEU PRO ASP MET LEU          
  19 B  361  SER PHE ILE HIS ALA ASN LEU ASN PRO GLN LYS TYR PRO          
  20 B  361  THR ASP ILE GLN ARG ALA ILE ASN GLU THR HIS GLN GLY          
  21 B  361  ARG TYR GLN VAL ASN THR MET TYR GLN ALA LEU GLY TRP          
  22 B  361  GLU GLU PHE SER TYR PRO ALA THR LEU GLN THR LEU LEU          
  23 B  361  ASP SER ASN SER GLU GLN ILE VAL MET LYS PRO ASN LYS          
  24 B  361  VAL THR ALA ILE SER LYS GLU PRO SER VAL LYS MET TYR          
  25 B  361  HIS LYS THR GLY SER THR SER GLY PHE GLY THR TYR VAL          
  26 B  361  VAL PHE ILE PRO LYS GLU ASN ILE GLY LEU VAL MET LEU          
  27 B  361  THR ASN LYS ARG ILE PRO ASN GLU GLU ARG ILE LYS ALA          
  28 B  361  ALA TYR VAL VAL LEU ASN ALA ILE LYS LYS                      
   1 C  361  MET ASP ASN THR PRO LYS ASP GLN GLU ILE LYS LYS LEU          
   2 C  361  VAL ASP GLN ASN PHE LYS PRO LEU LEU GLU LYS TYR ASP          
   3 C  361  VAL PRO GLY MET ALA VAL GLY VAL ILE GLN ASN ASN LYS          
   4 C  361  LYS TYR GLU MET TYR TYR GLY LEU GLN SER VAL GLN ASP          
   5 C  361  LYS LYS ALA VAL ASN SER ASN THR ILE PHE GLU LEU GLY          
   6 C  361  SER VAL SER LYS LEU PHE THR ALA THR ALA GLY GLY TYR          
   7 C  361  ALA LYS ASN LYS GLY LYS ILE SER PHE ASP ASP THR PRO          
   8 C  361  GLY LYS TYR TRP LYS GLU LEU LYS ASN THR PRO ILE ASP          
   9 C  361  GLN VAL ASN LEU LEU GLN LEU ALA THR TYR THR SER GLY          
  10 C  361  ASN LEU ALA LEU GLN PHE PRO ASP GLU VAL GLN THR ASP          
  11 C  361  GLN GLN VAL LEU THR PHE PHE LYS ASP TRP LYS PRO LYS          
  12 C  361  ASN PRO ILE GLY GLU TYR ARG GLN TYR SER ASN PRO SER          
  13 C  361  ILE GLY LEU PHE GLY LYS VAL VAL ALA LEU SER MET ASN          
  14 C  361  LYS PRO PHE ASP GLN VAL LEU GLU LYS THR ILE PHE PRO          
  15 C  361  ALA LEU GLY LEU LYS HIS SER TYR VAL ASN VAL PRO LYS          
  16 C  361  THR GLN MET GLN ASN TYR ALA PHE GLY TYR ASN GLN GLU          
  17 C  361  ASN GLN PRO ILE ARG VAL ASN PRO GLY PRO LEU ASP ALA          
  18 C  361  PRO ALA TYR GLY VAL LYS SER THR LEU PRO ASP MET LEU          
  19 C  361  SER PHE ILE HIS ALA ASN LEU ASN PRO GLN LYS TYR PRO          
  20 C  361  THR ASP ILE GLN ARG ALA ILE ASN GLU THR HIS GLN GLY          
  21 C  361  ARG TYR GLN VAL ASN THR MET TYR GLN ALA LEU GLY TRP          
  22 C  361  GLU GLU PHE SER TYR PRO ALA THR LEU GLN THR LEU LEU          
  23 C  361  ASP SER ASN SER GLU GLN ILE VAL MET LYS PRO ASN LYS          
  24 C  361  VAL THR ALA ILE SER LYS GLU PRO SER VAL LYS MET TYR          
  25 C  361  HIS LYS THR GLY SER THR SER GLY PHE GLY THR TYR VAL          
  26 C  361  VAL PHE ILE PRO LYS GLU ASN ILE GLY LEU VAL MET LEU          
  27 C  361  THR ASN LYS ARG ILE PRO ASN GLU GLU ARG ILE LYS ALA          
  28 C  361  ALA TYR VAL VAL LEU ASN ALA ILE LYS LYS                      
   1 D  361  MET ASP ASN THR PRO LYS ASP GLN GLU ILE LYS LYS LEU          
   2 D  361  VAL ASP GLN ASN PHE LYS PRO LEU LEU GLU LYS TYR ASP          
   3 D  361  VAL PRO GLY MET ALA VAL GLY VAL ILE GLN ASN ASN LYS          
   4 D  361  LYS TYR GLU MET TYR TYR GLY LEU GLN SER VAL GLN ASP          
   5 D  361  LYS LYS ALA VAL ASN SER ASN THR ILE PHE GLU LEU GLY          
   6 D  361  SER VAL SER LYS LEU PHE THR ALA THR ALA GLY GLY TYR          
   7 D  361  ALA LYS ASN LYS GLY LYS ILE SER PHE ASP ASP THR PRO          
   8 D  361  GLY LYS TYR TRP LYS GLU LEU LYS ASN THR PRO ILE ASP          
   9 D  361  GLN VAL ASN LEU LEU GLN LEU ALA THR TYR THR SER GLY          
  10 D  361  ASN LEU ALA LEU GLN PHE PRO ASP GLU VAL GLN THR ASP          
  11 D  361  GLN GLN VAL LEU THR PHE PHE LYS ASP TRP LYS PRO LYS          
  12 D  361  ASN PRO ILE GLY GLU TYR ARG GLN TYR SER ASN PRO SER          
  13 D  361  ILE GLY LEU PHE GLY LYS VAL VAL ALA LEU SER MET ASN          
  14 D  361  LYS PRO PHE ASP GLN VAL LEU GLU LYS THR ILE PHE PRO          
  15 D  361  ALA LEU GLY LEU LYS HIS SER TYR VAL ASN VAL PRO LYS          
  16 D  361  THR GLN MET GLN ASN TYR ALA PHE GLY TYR ASN GLN GLU          
  17 D  361  ASN GLN PRO ILE ARG VAL ASN PRO GLY PRO LEU ASP ALA          
  18 D  361  PRO ALA TYR GLY VAL LYS SER THR LEU PRO ASP MET LEU          
  19 D  361  SER PHE ILE HIS ALA ASN LEU ASN PRO GLN LYS TYR PRO          
  20 D  361  THR ASP ILE GLN ARG ALA ILE ASN GLU THR HIS GLN GLY          
  21 D  361  ARG TYR GLN VAL ASN THR MET TYR GLN ALA LEU GLY TRP          
  22 D  361  GLU GLU PHE SER TYR PRO ALA THR LEU GLN THR LEU LEU          
  23 D  361  ASP SER ASN SER GLU GLN ILE VAL MET LYS PRO ASN LYS          
  24 D  361  VAL THR ALA ILE SER LYS GLU PRO SER VAL LYS MET TYR          
  25 D  361  HIS LYS THR GLY SER THR SER GLY PHE GLY THR TYR VAL          
  26 D  361  VAL PHE ILE PRO LYS GLU ASN ILE GLY LEU VAL MET LEU          
  27 D  361  THR ASN LYS ARG ILE PRO ASN GLU GLU ARG ILE LYS ALA          
  28 D  361  ALA TYR VAL VAL LEU ASN ALA ILE LYS LYS                      

>  <HET>
 QQZ  A 401      23                                                       
 QQZ  B 401      23                                                       
 PO4  B 402       5                                                       
 QQZ  C 401      23                                                       
 QQZ  D 401      23                                                       

>  <HETNAM>
     QQZ PHOSPHONOOXY-[[[6-(1~{H}-1,2,3,4-TETRAZOL-5-YL)PYRIDIN-          
   2 QQZ  3-YL]SULFONYLAMINO]METHYL]BORINIC ACID                          
     PO4 PHOSPHATE ION                                                    

>  <FORMUL>
   5  QQZ    4(C7 H10 B N6 O7 P S)                                        
   7  PO4    O4 P 3-                                                      
  10  HOH   *370(H2 O)                                                    

>  <HELIX>
   1 AA1 GLU A    7  PHE A   16  1                                  10    
   2 AA2 PHE A   16  TYR A   23  1                                   8    
   3 AA3 VAL A   65  LYS A   80  1                                  16    
   4 AA4 THR A   88  TYR A   92  5                                   5    
   5 AA5 TRP A   93  LYS A   97  5                                   5    
   6 AA6 THR A   99  VAL A  104  5                                   6    
   7 AA7 ASN A  105  THR A  111  1                                   7    
   8 AA8 THR A  127  ASP A  137  1                                  11    
   9 AA9 SER A  151  ASN A  167  1                                  17    
  10 AB1 PRO A  169  THR A  177  1                                   9    
  11 AB2 THR A  177  LEU A  182  1                                   6    
  12 AB3 PRO A  192  TYR A  199  5                                   8    
  13 AB4 LEU A  217  GLY A  223  1                                   7    
  14 AB5 LEU A  228  ASN A  240  1                                  13    
  15 AB6 PRO A  241  TYR A  244  5                                   4    
  16 AB7 PRO A  245  HIS A  256  1                                  12    
  17 AB8 THR A  279  ASN A  287  1                                   9    
  18 AB9 SER A  288  LYS A  294  1                                   7    
  19 AC1 PRO A  327  GLU A  329  5                                   3    
  20 AC2 PRO A  342  ILE A  357  1                                  16    
  21 AC3 PRO B    3  PHE B   16  1                                  14    
  22 AC4 PHE B   16  ASP B   24  1                                   9    
  23 AC5 GLY B   63  VAL B   65  5                                   3    
  24 AC6 SER B   66  LYS B   80  1                                  15    
  25 AC7 THR B   88  TYR B   92  5                                   5    
  26 AC8 TRP B   93  LYS B   97  5                                   5    
  27 AC9 THR B   99  VAL B  104  5                                   6    
  28 AD1 ASN B  105  THR B  111  1                                   7    
  29 AD2 THR B  127  TRP B  138  1                                  12    
  30 AD3 SER B  151  MET B  166  1                                  16    
  31 AD4 PRO B  169  THR B  177  1                                   9    
  32 AD5 THR B  177  GLY B  183  1                                   7    
  33 AD6 PRO B  192  TYR B  199  5                                   8    
  34 AD7 LEU B  217  GLY B  223  1                                   7    
  35 AD8 THR B  227  ASN B  240  1                                  14    
  36 AD9 PRO B  241  TYR B  244  5                                   4    
  37 AE1 PRO B  245  GLN B  257  1                                  13    
  38 AE2 THR B  279  ASN B  287  1                                   9    
  39 AE3 SER B  288  LYS B  294  1                                   7    
  40 AE4 PRO B  327  GLU B  329  5                                   3    
  41 AE5 PRO B  342  ILE B  357  1                                  16    
  42 AE6 LYS C    4  PHE C   16  1                                  13    
  43 AE7 LYS C   17  ASP C   24  1                                   8    
  44 AE8 VAL C   65  GLY C   81  1                                  17    
  45 AE9 THR C   88  TYR C   92  5                                   5    
  46 AF1 TRP C   93  LYS C   97  5                                   5    
  47 AF2 THR C   99  VAL C  104  5                                   6    
  48 AF3 ASN C  105  THR C  111  1                                   7    
  49 AF4 THR C  127  ASP C  137  1                                  11    
  50 AF5 SER C  151  SER C  165  1                                  15    
  51 AF6 PRO C  169  THR C  177  1                                   9    
  52 AF7 THR C  177  GLY C  183  1                                   7    
  53 AF8 PRO C  192  TYR C  199  5                                   8    
  54 AF9 LEU C  217  GLY C  223  1                                   7    
  55 AG1 THR C  227  ASN C  240  1                                  14    
  56 AG2 PRO C  241  TYR C  244  5                                   4    
  57 AG3 PRO C  245  GLN C  257  1                                  13    
  58 AG4 THR C  279  SER C  286  1                                   8    
  59 AG5 SER C  288  LYS C  294  1                                   7    
  60 AG6 PRO C  342  ASN C  355  1                                  14    
  61 AG7 LYS D    4  PHE D   16  1                                  13    
  62 AG8 LYS D   17  ASP D   24  1                                   8    
  63 AG9 VAL D   65  LYS D   80  1                                  16    
  64 AH1 ASN D  105  THR D  111  1                                   7    
  65 AH2 THR D  127  ASP D  137  1                                  11    
  66 AH3 SER D  151  MET D  166  1                                  16    
  67 AH4 PRO D  169  THR D  177  1                                   9    
  68 AH5 THR D  177  GLY D  183  1                                   7    
  69 AH6 PRO D  192  TYR D  199  5                                   8    
  70 AH7 LEU D  217  GLY D  223  1                                   7    
  71 AH8 LEU D  228  ASN D  240  1                                  13    
  72 AH9 PRO D  241  TYR D  244  5                                   4    
  73 AI1 PRO D  245  GLN D  257  1                                  13    
  74 AI2 THR D  279  SER D  286  1                                   8    
  75 AI3 SER D  288  LYS D  294  1                                   7    
  76 AI4 PRO D  327  GLU D  329  5                                   3    
  77 AI5 PRO D  342  ALA D  356  1                                  15    

>  <SHEET>
   1 AA1 9 LYS A  52  ALA A  53  0                                        
   2 AA1 9 LYS A  37  SER A  47 -1  N  GLN A  46   O  LYS A  52           
   3 AA1 9 GLY A  27  GLN A  34 -1  N  GLN A  34   O  LYS A  37           
   4 AA1 9 ILE A 331  THR A 337 -1  O  VAL A 334   N  GLY A  31           
   5 AA1 9 PHE A 319  ILE A 326 -1  N  ILE A 326   O  ILE A 331           
   6 AA1 9 LYS A 308  THR A 316 -1  N  TYR A 310   O  PHE A 325           
   7 AA1 9 GLU A 272  SER A 275 -1  N  PHE A 274   O  MET A 309           
   8 AA1 9 MET A 265  GLN A 267 -1  N  TYR A 266   O  GLU A 273           
   9 AA1 9 TYR A 260  VAL A 262 -1  N  VAL A 262   O  MET A 265           
   1 AA2 2 ILE A  59  GLU A  61  0                                        
   2 AA2 2 LYS A 225  THR A 227 -1  O  SER A 226   N  PHE A  60           
   1 AA3 2 TYR A 147  ARG A 148  0                                        
   2 AA3 2 ASN A 296  LYS A 297 -1  O  ASN A 296   N  ARG A 148           
   1 AA4 2 GLY A 202  TYR A 203  0                                        
   2 AA4 2 PRO A 209  ILE A 210 -1  O  ILE A 210   N  GLY A 202           
   1 AA5 9 LYS B  52  ALA B  53  0                                        
   2 AA5 9 LYS B  37  SER B  47 -1  N  GLN B  46   O  LYS B  52           
   3 AA5 9 GLY B  27  GLN B  34 -1  N  GLN B  34   O  LYS B  37           
   4 AA5 9 ILE B 331  THR B 337 -1  O  LEU B 336   N  ALA B  29           
   5 AA5 9 PHE B 319  ILE B 326 -1  N  ILE B 326   O  ILE B 331           
   6 AA5 9 LYS B 308  THR B 316 -1  N  GLY B 314   O  THR B 321           
   7 AA5 9 GLU B 272  SER B 275 -1  N  PHE B 274   O  MET B 309           
   8 AA5 9 MET B 265  GLN B 267 -1  N  TYR B 266   O  GLU B 273           
   9 AA5 9 TYR B 260  VAL B 262 -1  N  TYR B 260   O  GLN B 267           
   1 AA6 2 PHE B  60  GLU B  61  0                                        
   2 AA6 2 LYS B 225  SER B 226 -1  O  SER B 226   N  PHE B  60           
   1 AA7 2 TYR B 147  ARG B 148  0                                        
   2 AA7 2 ASN B 296  LYS B 297 -1  O  ASN B 296   N  ARG B 148           
   1 AA8 2 GLY B 202  TYR B 203  0                                        
   2 AA8 2 PRO B 209  ILE B 210 -1  O  ILE B 210   N  GLY B 202           
   1 AA9 9 LYS C  52  ALA C  53  0                                        
   2 AA9 9 LYS C  37  SER C  47 -1  N  GLN C  46   O  LYS C  52           
   3 AA9 9 GLY C  27  GLN C  34 -1  N  VAL C  32   O  TYR C  39           
   4 AA9 9 ILE C 331  THR C 337 -1  O  VAL C 334   N  GLY C  31           
   5 AA9 9 PHE C 319  ILE C 326 -1  N  GLY C 320   O  THR C 337           
   6 AA9 9 LYS C 308  THR C 316 -1  N  LYS C 312   O  VAL C 323           
   7 AA9 9 GLU C 272  SER C 275 -1  N  PHE C 274   O  MET C 309           
   8 AA9 9 MET C 265  GLN C 267 -1  N  TYR C 266   O  GLU C 273           
   9 AA9 9 TYR C 260  VAL C 262 -1  N  VAL C 262   O  MET C 265           
   1 AB1 2 PHE C  60  GLU C  61  0                                        
   2 AB1 2 LYS C 225  SER C 226 -1  O  SER C 226   N  PHE C  60           
   1 AB2 2 GLY C 202  TYR C 203  0                                        
   2 AB2 2 PRO C 209  ILE C 210 -1  O  ILE C 210   N  GLY C 202           
   1 AB3 9 LYS D  52  ALA D  53  0                                        
   2 AB3 9 LYS D  37  SER D  47 -1  N  GLN D  46   O  LYS D  52           
   3 AB3 9 GLY D  27  GLN D  34 -1  N  VAL D  32   O  TYR D  39           
   4 AB3 9 ILE D 331  THR D 337 -1  O  LEU D 336   N  ALA D  29           
   5 AB3 9 PHE D 319  ILE D 326 -1  N  ILE D 326   O  ILE D 331           
   6 AB3 9 LYS D 308  THR D 316 -1  N  LYS D 312   O  VAL D 323           
   7 AB3 9 GLU D 272  SER D 275 -1  N  PHE D 274   O  MET D 309           
   8 AB3 9 MET D 265  GLN D 267 -1  N  TYR D 266   O  GLU D 273           
   9 AB3 9 GLN D 261  VAL D 262 -1  N  VAL D 262   O  MET D 265           
   1 AB4 2 ILE D  59  GLU D  61  0                                        
   2 AB4 2 LYS D 225  THR D 227 -1  O  SER D 226   N  PHE D  60           
   1 AB5 2 TYR D 147  ARG D 148  0                                        
   2 AB5 2 ASN D 296  LYS D 297 -1  O  ASN D 296   N  ARG D 148           
   1 AB6 2 GLY D 202  TYR D 203  0                                        
   2 AB6 2 PRO D 209  ILE D 210 -1  O  ILE D 210   N  GLY D 202           

>  <LINK>
       OG  SER A  64                 B1  QQZ A 401     1555   1555  1.44  
       OG  SER B  64                 B1  QQZ B 401     1555   1555  1.46  
       OG  SER C  64                 B1  QQZ C 401     1555   1555  1.45  
       OG  SER D  64                 B1  QQZ D 401     1555   1555  1.43  

>  <CISPEP>
   1 TYR A  276    PRO A  277          0         7.89                     
   2 TYR B  276    PRO B  277          0         6.16                     
   3 TYR C  276    PRO C  277          0         3.68                     
   4 TYR D  276    PRO D  277          0         5.03                     

>  <ORIGX1>
      1.000000  0.000000  0.000000        0.00000                         

>  <ORIGX2>
      0.000000  1.000000  0.000000        0.00000                         

>  <ORIGX3>
      0.000000  0.000000  1.000000        0.00000                         

>  <SCALE1>
      0.011202  0.000000  0.004641        0.00000                         

>  <SCALE2>
      0.000000  0.012274  0.000000        0.00000                         

>  <SCALE3>
      0.000000  0.000000  0.010220        0.00000                         

>  <MASTER>
      486    0    5   77   58    0    0    611252    4  101  112          

$$$$
