start_structures/Ligand_Substrate/Ligand_Complex_Stripped/R0B_7A61.pdb
 OpenBabel08222315203D

 42 42  0  0  1  0  0  0  0  0999 V2000
   11.7560   12.6960   19.3680 N   0  0  0  0  0  0  0  0  0  0  0  0
   12.5600   13.6650   20.1020 C   0  0  2  0  0  0  0  0  0  0  0  0
   12.7960   14.9720   19.3540 C   0  0  0  0  0  0  0  0  0  0  0  0
   13.3760   15.9020   19.9320 O   0  0  0  0  0  0  0  0  0  0  0  0
   13.9540   13.1010   20.4430 C   0  0  0  0  0  0  0  0  0  0  0  0
   13.9340   12.0240   21.3790 O   0  0  0  0  0  0  0  0  0  0  0  0
   12.1900   12.0010   19.1080 H   0  0  0  0  0  0  0  0  0  0  0  0
   12.0700   13.8400   20.9200 H   0  0  0  0  0  0  0  0  0  0  0  0
   14.3600   12.7820   19.6220 H   0  0  0  0  0  0  0  0  0  0  0  0
   14.4870   13.8190   20.8190 H   0  0  0  0  0  0  0  0  0  0  0  0
   19.4320    4.1110   19.0060 C   0  0  0  0  0  0  0  0  0  0  0  0
   12.4590    8.8590   22.8590 C   0  0  0  0  0  0  0  0  0  0  0  0
   16.0210   10.0220   21.8970 C   0  0  2  0  0  0  0  0  0  0  0  0
   13.7870    9.5330   23.0310 C   0  0  2  0  0  0  0  0  0  0  0  0
   13.9340   10.7730   20.8180 C   0  0  0  0  0  0  0  0  0  0  0  0
   17.6340   11.0130   18.6110 C   0  0  0  0  0  0  0  0  0  0  0  0
   17.1610   10.2250   19.9080 C   0  0  0  0  0  0  0  0  0  0  0  0
   17.7310    8.8830   20.2710 C   0  0  0  0  0  0  0  0  0  0  0  0
   18.4820    7.9840   19.5990 C   0  0  0  0  0  0  0  0  0  0  0  0
   18.7900    6.5410   19.9890 C   0  0  0  0  0  0  0  0  0  0  0  0
   19.0550    5.6080   18.7550 C   0  0  0  0  0  0  0  0  0  0  0  0
   14.5290    9.6690   21.6580 C   0  0  1  0  0  0  0  0  0  0  0  0
   16.5320   10.8460   20.8220 N   0  0  0  0  0  0  0  0  0  0  0  0
   17.7420   12.2250   18.6900 O   0  0  0  0  0  0  0  0  0  0  0  0
   17.8190   10.2530   17.6310 O   0  5  0  0  0  0  0  0  0  0  0  0
   14.6080    8.7430   23.9040 O   0  0  0  0  0  0  0  0  0  0  0  0
   13.5130   10.5780   19.6940 O   0  0  0  0  0  0  0  0  0  0  0  0
   17.0810    8.5070   21.9020 S   0  0  0  0  0  0  0  0  0  0  0  0
   19.1820    3.8200   19.8970 H   0  0  0  0  0  0  0  0  0  0  0  0
   20.3870    3.9610   18.9330 H   0  0  0  0  0  0  0  0  0  0  0  0
   11.7470    9.4980   22.6950 H   0  0  0  0  0  0  0  0  0  0  0  0
   12.2060    8.3500   23.6450 H   0  0  0  0  0  0  0  0  0  0  0  0
   12.4610    8.2410   22.1110 H   0  0  0  0  0  0  0  0  0  0  0  0
   16.1210   10.2840   22.8250 H   0  0  0  0  0  0  0  0  0  0  0  0
   13.6290   10.3960   23.4450 H   0  0  0  0  0  0  0  0  0  0  0  0
   18.8480    8.2990   18.8040 H   0  0  0  0  0  0  0  0  0  0  0  0
   19.5480    6.5030   20.5940 H   0  0  0  0  0  0  0  0  0  0  0  0
   18.0740    6.1710   20.5290 H   0  0  0  0  0  0  0  0  0  0  0  0
   18.2720    5.6250   18.1840 H   0  0  0  0  0  0  0  0  0  0  0  0
   19.7590    6.0040   18.2160 H   0  0  0  0  0  0  0  0  0  0  0  0
   14.4560    8.8450   21.1510 H   0  0  0  0  0  0  0  0  0  0  0  0
   14.2130    8.0070   24.0660 H   0  0  0  0  0  0  0  0  0  0  0  0
  1  2  1  0  0  0  0
  2  5  1  0  0  0  0
  2  8  1  1  0  0  0
  3  4  2  0  0  0  0
  3  2  1  0  0  0  0
  5 10  1  0  0  0  0
  5  6  1  0  0  0  0
  6 15  1  0  0  0  0
  7  1  1  0  0  0  0
  9  5  1  0  0  0  0
 11 21  1  0  0  0  0
 11 29  1  0  0  0  0
 11 30  1  0  0  0  0
 12 14  1  0  0  0  0
 12 31  1  0  0  0  0
 12 32  1  0  0  0  0
 12 33  1  0  0  0  0
 13 22  1  0  0  0  0
 13 23  1  0  0  0  0
 13 28  1  0  0  0  0
 13 34  1  1  0  0  0
 14 22  1  0  0  0  0
 14 26  1  0  0  0  0
 14 35  1  1  0  0  0
 15 22  1  0  0  0  0
 15 27  2  0  0  0  0
 16 17  1  0  0  0  0
 16 24  2  0  0  0  0
 16 25  1  0  0  0  0
 17 18  2  0  0  0  0
 17 23  1  0  0  0  0
 18 19  1  0  0  0  0
 18 28  1  0  0  0  0
 19 20  1  0  0  0  0
 19 36  1  0  0  0  0
 20 21  1  0  0  0  0
 20 37  1  0  0  0  0
 20 38  1  0  0  0  0
 21 39  1  0  0  0  0
 21 40  1  0  0  0  0
 22 41  1  6  0  0  0
 26 42  1  0  0  0  0
M  CHG  1  25  -1
M  END
>  <HEADER>
    ANTIMICROBIAL PROTEIN                   24-AUG-20   7A61              

>  <TITLE>
    CRYSTAL STRUCTURE OF KPC-2 WITH HYDROLYZED FAROPENEM (RING-OPEN FORM) 

>  <COMPND>
    MOL_ID: 1;                                                            
   2 MOLECULE: CARBAPENEM-HYDROLYZING BETA-LACTAMASE KPC;                 
   3 CHAIN: A;                                                            
   4 SYNONYM: CARBAPENEM-HYDROLYZING BETA-LACTAMASE KPC-1;                
   5 EC: 3.5.2.6;                                                         
   6 ENGINEERED: YES                                                      

>  <SOURCE>
    MOL_ID: 1;                                                            
   2 ORGANISM_SCIENTIFIC: KLEBSIELLA PNEUMONIAE;                          
   3 ORGANISM_TAXID: 573;                                                 
   4 GENE: BLA, KPC, KPC1;                                                
   5 EXPRESSION_SYSTEM: ESCHERICHIA COLI BL21(DE3);                       
   6 EXPRESSION_SYSTEM_TAXID: 469008                                      

>  <KEYWDS>
    METALLO-BETA-LACTAMASE, ANTIBIOTIC, FAROPENEM, CATALYSIS,             
   2 ANTIMICROBIAL PROTEIN                                                

>  <EXPDTA>
    X-RAY DIFFRACTION                                                     

>  <AUTHOR>
    P.HINCHLIFFE,J.SPENCER                                                

>  <REVDAT>
   2   03-MAR-21 7A61    1       JRNL                                     
   1   24-FEB-21 7A61    0                                                

>  <JRNL>
      AUTH   A.LUCIC,P.HINCHLIFFE,T.R.MALLA,C.L.TOOKE,J.BREM,K.CALVOPINA, 
      AUTH 2 C.T.LOHANS,P.RABE,M.A.MCDONOUGH,T.ARMISTEAD,A.M.ORVILLE,     
      AUTH 3 J.SPENCER,C.J.SCHOFIELD                                      
      TITL   FAROPENEM REACTS WITH SERINE AND METALLO-BETA-LACTAMASES TO  
      TITL 2 GIVE MULTIPLE PRODUCTS.                                      
      REF    EUR.J.MED.CHEM.               V. 215 13257 2021              
      REFN                   ISSN 0223-5234                               
      PMID   33618159                                                     
      DOI    10.1016/J.EJMECH.2021.113257                                 

>  <REMARK>
   2                                                                      
   2 RESOLUTION.    1.25 ANGSTROMS.                                       
   3                                                                      
   3 REFINEMENT.                                                          
   3   PROGRAM     : PHENIX 1.17.1_3660                                   
   3   AUTHORS     : PAUL ADAMS,PAVEL AFONINE,VINCENT CHEN,IAN            
   3               : DAVIS,KRESHNA GOPAL,RALF GROSSE-KUNSTLEVE,           
   3               : LI-WEI HUNG,ROBERT IMMORMINO,TOM IOERGER,            
   3               : AIRLIE MCCOY,ERIK MCKEE,NIGEL MORIARTY,              
   3               : REETAL PAI,RANDY READ,JANE RICHARDSON,               
   3               : DAVID RICHARDSON,TOD ROMO,JIM SACCHETTINI,           
   3               : NICHOLAS SAUTER,JACOB SMITH,LAURENT                  
   3               : STORONI,TOM TERWILLIGER,PETER ZWART                  
   3                                                                      
   3    REFINEMENT TARGET : GEOSTD + MONOMER LIBRARY + CDL V1.2           
   3                                                                      
   3  DATA USED IN REFINEMENT.                                            
   3   RESOLUTION RANGE HIGH (ANGSTROMS) : 1.25                           
   3   RESOLUTION RANGE LOW  (ANGSTROMS) : 48.28                          
   3   MIN(FOBS/SIGMA_FOBS)              : 1.340                          
   3   COMPLETENESS FOR RANGE        (%) : 99.9                           
   3   NUMBER OF REFLECTIONS             : 75789                          
   3                                                                      
   3  FIT TO DATA USED IN REFINEMENT.                                     
   3   R VALUE     (WORKING + TEST SET) : 0.134                           
   3   R VALUE            (WORKING SET) : 0.133                           
   3   FREE R VALUE                     : 0.160                           
   3   FREE R VALUE TEST SET SIZE   (%) : 5.090                           
   3   FREE R VALUE TEST SET COUNT      : 3855                            
   3                                                                      
   3  FIT TO DATA USED IN REFINEMENT (IN BINS).                           
   3   BIN  RESOLUTION RANGE  COMPL.    NWORK NFREE   RWORK  RFREE        
   3     1 48.2800 -  3.8000    1.00     2770   169  0.1469 0.1680        
   3     2  3.7900 -  3.0100    1.00     2655   150  0.1218 0.1400        
   3     3  3.0100 -  2.6300    1.00     2626   137  0.1156 0.1349        
   3     4  2.6300 -  2.3900    1.00     2616   130  0.1055 0.1349        
   3     5  2.3900 -  2.2200    1.00     2584   138  0.1003 0.1169        
   3     6  2.2200 -  2.0900    1.00     2579   140  0.1016 0.1275        
   3     7  2.0900 -  1.9800    1.00     2615   131  0.1018 0.1368        
   3     8  1.9800 -  1.9000    1.00     2562   151  0.1062 0.1282        
   3     9  1.9000 -  1.8200    1.00     2572   123  0.1089 0.1428        
   3    10  1.8200 -  1.7600    1.00     2602   122  0.1076 0.1301        
   3    11  1.7600 -  1.7100    1.00     2565   130  0.1048 0.1634        
   3    12  1.7100 -  1.6600    1.00     2569   140  0.1116 0.1578        
   3    13  1.6600 -  1.6100    1.00     2541   147  0.1098 0.1469        
   3    14  1.6100 -  1.5700    1.00     2549   143  0.1158 0.1485        
   3    15  1.5700 -  1.5400    1.00     2538   144  0.1230 0.1751        
   3    16  1.5400 -  1.5100    1.00     2565   139  0.1328 0.1596        
   3    17  1.5100 -  1.4800    1.00     2545   106  0.1395 0.1641        
   3    18  1.4800 -  1.4500    1.00     2587   135  0.1467 0.1901        
   3    19  1.4500 -  1.4200    1.00     2532   129  0.1553 0.2132        
   3    20  1.4200 -  1.4000    1.00     2552   114  0.1842 0.1864        
   3    21  1.4000 -  1.3800    1.00     2534   143  0.1961 0.1922        
   3    22  1.3800 -  1.3500    1.00     2525   138  0.2250 0.2539        
   3    23  1.3500 -  1.3300    1.00     2540   148  0.2544 0.2702        
   3    24  1.3300 -  1.3200    1.00     2554   140  0.2634 0.2669        
   3    25  1.3200 -  1.3000    1.00     2517   158  0.2681 0.2922        
   3    26  1.3000 -  1.2800    1.00     2512   144  0.2657 0.2929        
   3    27  1.2800 -  1.2700    1.00     2520   130  0.2862 0.3144        
   3    28  1.2700 -  1.2500    0.99     2508   136  0.3254 0.3271        
   3                                                                      
   3  BULK SOLVENT MODELLING.                                             
   3   METHOD USED        : FLAT BULK SOLVENT MODEL                       
   3   SOLVENT RADIUS     : 1.11                                          
   3   SHRINKAGE RADIUS   : 0.90                                          
   3   K_SOL              : NULL                                          
   3   B_SOL              : NULL                                          
   3                                                                      
   3  ERROR ESTIMATES.                                                    
   3   COORDINATE ERROR (MAXIMUM-LIKELIHOOD BASED)     : 0.139            
   3   PHASE ERROR (DEGREES, MAXIMUM-LIKELIHOOD BASED) : 16.757           
   3                                                                      
   3  B VALUES.                                                           
   3   FROM WILSON PLOT           (A**2) : 11.81                          
   3   MEAN B VALUE      (OVERALL, A**2) : 19.09                          
   3   OVERALL ANISOTROPIC B VALUE.                                       
   3    B11 (A**2) : NULL                                                 
   3    B22 (A**2) : NULL                                                 
   3    B33 (A**2) : NULL                                                 
   3    B12 (A**2) : NULL                                                 
   3    B13 (A**2) : NULL                                                 
   3    B23 (A**2) : NULL                                                 
   3                                                                      
   3  TWINNING INFORMATION.                                               
   3   FRACTION: NULL                                                     
   3   OPERATOR: NULL                                                     
   3                                                                      
   3  DEVIATIONS FROM IDEAL VALUES.                                       
   3                 RMSD          COUNT                                  
   3   BOND      :  0.008           2250                                  
   3   ANGLE     :  1.040           3081                                  
   3   CHIRALITY :  0.075            338                                  
   3   PLANARITY :  0.007            405                                  
   3   DIHEDRAL  : 18.354            813                                  
   3                                                                      
   3  TLS DETAILS                                                         
   3   NUMBER OF TLS GROUPS  : NULL                                       
   3                                                                      
   3  NCS DETAILS                                                         
   3   NUMBER OF NCS GROUPS : NULL                                        
   3                                                                      
   3  OTHER REFINEMENT REMARKS: NULL                                      
   4                                                                      
   4 7A61 COMPLIES WITH FORMAT V. 3.30, 13-JUL-11                         
 100                                                                      
 100 THIS ENTRY HAS BEEN PROCESSED BY PDBE ON 24-AUG-20.                  
 100 THE DEPOSITION ID IS D_1292110669.                                   
 200                                                                      
 200 EXPERIMENTAL DETAILS                                                 
 200  EXPERIMENT TYPE                : X-RAY DIFFRACTION                  
 200  DATE OF DATA COLLECTION        : 01-MAY-19                          
 200  TEMPERATURE           (KELVIN) : 100                                
 200  PH                             : NULL                               
 200  NUMBER OF CRYSTALS USED        : 1                                  
 200                                                                      
 200  SYNCHROTRON              (Y/N) : Y                                  
 200  RADIATION SOURCE               : ALBA                               
 200  BEAMLINE                       : XALOC                              
 200  X-RAY GENERATOR MODEL          : NULL                               
 200  MONOCHROMATIC OR LAUE    (M/L) : M                                  
 200  WAVELENGTH OR RANGE        (A) : 0.89996                            
 200  MONOCHROMATOR                  : NULL                               
 200  OPTICS                         : NULL                               
 200                                                                      
 200  DETECTOR TYPE                  : PIXEL                              
 200  DETECTOR MANUFACTURER          : DECTRIS PILATUS 6M                 
 200  INTENSITY-INTEGRATION SOFTWARE : XDS                                
 200  DATA SCALING SOFTWARE          : AIMLESS                            
 200                                                                      
 200  NUMBER OF UNIQUE REFLECTIONS   : 75948                              
 200  RESOLUTION RANGE HIGH      (A) : 1.250                              
 200  RESOLUTION RANGE LOW       (A) : 48.280                             
 200  REJECTION CRITERIA  (SIGMA(I)) : NULL                               
 200                                                                      
 200 OVERALL.                                                             
 200  COMPLETENESS FOR RANGE     (%) : 100.0                              
 200  DATA REDUNDANCY                : 13.20                              
 200  R MERGE                    (I) : NULL                               
 200  R SYM                      (I) : NULL                               
 200  <I/SIGMA(I)> FOR THE DATA SET  : 9.2000                             
 200                                                                      
 200 IN THE HIGHEST RESOLUTION SHELL.                                     
 200  HIGHEST RESOLUTION SHELL, RANGE HIGH (A) : 1.25                     
 200  HIGHEST RESOLUTION SHELL, RANGE LOW  (A) : 1.27                     
 200  COMPLETENESS FOR SHELL     (%) : NULL                               
 200  DATA REDUNDANCY IN SHELL       : NULL                               
 200  R MERGE FOR SHELL          (I) : NULL                               
 200  R SYM FOR SHELL            (I) : NULL                               
 200  <I/SIGMA(I)> FOR SHELL         : 0.800                              
 200                                                                      
 200 DIFFRACTION PROTOCOL: SINGLE WAVELENGTH                              
 200 METHOD USED TO DETERMINE THE STRUCTURE: MOLECULAR REPLACEMENT        
 200 SOFTWARE USED: PHASER                                                
 200 STARTING MODEL: 6QW9                                                 
 200                                                                      
 200 REMARK: NULL                                                         
 280                                                                      
 280 CRYSTAL                                                              
 280 SOLVENT CONTENT, VS   (%): 44.14                                     
 280 MATTHEWS COEFFICIENT, VM (ANGSTROMS**3/DA): 2.20                     
 280                                                                      
 280 CRYSTALLIZATION CONDITIONS: 2.0 M AMMONIUM SULPHATE, 5% ETHANOL,     
 280  VAPOR DIFFUSION, SITTING DROP, TEMPERATURE 294K                     
 290                                                                      
 290 CRYSTALLOGRAPHIC SYMMETRY                                            
 290 SYMMETRY OPERATORS FOR SPACE GROUP: P 21 21 2                        
 290                                                                      
 290      SYMOP   SYMMETRY                                                
 290     NNNMMM   OPERATOR                                                
 290       1555   X,Y,Z                                                   
 290       2555   -X,-Y,Z                                                 
 290       3555   -X+1/2,Y+1/2,-Z                                         
 290       4555   X+1/2,-Y+1/2,-Z                                         
 290                                                                      
 290     WHERE NNN -> OPERATOR NUMBER                                     
 290           MMM -> TRANSLATION VECTOR                                  
 290                                                                      
 290 CRYSTALLOGRAPHIC SYMMETRY TRANSFORMATIONS                            
 290 THE FOLLOWING TRANSFORMATIONS OPERATE ON THE ATOM/HETATM             
 290 RECORDS IN THIS ENTRY TO PRODUCE CRYSTALLOGRAPHICALLY                
 290 RELATED MOLECULES.                                                   
 290   SMTRY1   1  1.000000  0.000000  0.000000        0.00000            
 290   SMTRY2   1  0.000000  1.000000  0.000000        0.00000            
 290   SMTRY3   1  0.000000  0.000000  1.000000        0.00000            
 290   SMTRY1   2 -1.000000  0.000000  0.000000        0.00000            
 290   SMTRY2   2  0.000000 -1.000000  0.000000        0.00000            
 290   SMTRY3   2  0.000000  0.000000  1.000000        0.00000            
 290   SMTRY1   3 -1.000000  0.000000  0.000000       30.26750            
 290   SMTRY2   3  0.000000  1.000000  0.000000       40.01650            
 290   SMTRY3   3  0.000000  0.000000 -1.000000        0.00000            
 290   SMTRY1   4  1.000000  0.000000  0.000000       30.26750            
 290   SMTRY2   4  0.000000 -1.000000  0.000000       40.01650            
 290   SMTRY3   4  0.000000  0.000000 -1.000000        0.00000            
 290                                                                      
 290 REMARK: NULL                                                         
 300                                                                      
 300 BIOMOLECULE: 1                                                       
 300 SEE REMARK 350 FOR THE AUTHOR PROVIDED AND/OR PROGRAM                
 300 GENERATED ASSEMBLY INFORMATION FOR THE STRUCTURE IN                  
 300 THIS ENTRY. THE REMARK MAY ALSO PROVIDE INFORMATION ON               
 300 BURIED SURFACE AREA.                                                 
 350                                                                      
 350 COORDINATES FOR A COMPLETE MULTIMER REPRESENTING THE KNOWN           
 350 BIOLOGICALLY SIGNIFICANT OLIGOMERIZATION STATE OF THE                
 350 MOLECULE CAN BE GENERATED BY APPLYING BIOMT TRANSFORMATIONS          
 350 GIVEN BELOW.  BOTH NON-CRYSTALLOGRAPHIC AND                          
 350 CRYSTALLOGRAPHIC OPERATIONS ARE GIVEN.                               
 350                                                                      
 350 BIOMOLECULE: 1                                                       
 350 AUTHOR DETERMINED BIOLOGICAL UNIT: MONOMERIC                         
 350 SOFTWARE DETERMINED QUATERNARY STRUCTURE: MONOMERIC                  
 350 SOFTWARE USED: PISA                                                  
 350 TOTAL BURIED SURFACE AREA: 1040 ANGSTROM**2                          
 350 SURFACE AREA OF THE COMPLEX: 11320 ANGSTROM**2                       
 350 CHANGE IN SOLVENT FREE ENERGY: -35.0 KCAL/MOL                        
 350 APPLY THE FOLLOWING TO CHAINS: A                                     
 350   BIOMT1   1  1.000000  0.000000  0.000000        0.00000            
 350   BIOMT2   1  0.000000  1.000000  0.000000        0.00000            
 350   BIOMT3   1  0.000000  0.000000  1.000000        0.00000            
 375                                                                      
 375 SPECIAL POSITION                                                     
 375 THE FOLLOWING ATOMS ARE FOUND TO BE WITHIN 0.15 ANGSTROMS            
 375 OF A SYMMETRY RELATED ATOM AND ARE ASSUMED TO BE ON SPECIAL          
 375 POSITIONS.                                                           
 375                                                                      
 375 ATOM RES CSSEQI                                                      
 375      HOH A 488  LIES ON A SPECIAL POSITION.                          
 465                                                                      
 465 MISSING RESIDUES                                                     
 465 THE FOLLOWING RESIDUES WERE NOT LOCATED IN THE                       
 465 EXPERIMENT. (M=MODEL NUMBER; RES=RESIDUE NAME; C=CHAIN               
 465 IDENTIFIER; SSSEQ=SEQUENCE NUMBER; I=INSERTION CODE.)                
 465                                                                      
 465   M RES C SSSEQI                                                     
 465     MET A     4                                                      
 465     GLY A     5                                                      
 465     SER A     6                                                      
 465     SER A     7                                                      
 465     HIS A     8                                                      
 465     HIS A     9                                                      
 465     HIS A    10                                                      
 465     HIS A    11                                                      
 465     HIS A    12                                                      
 465     HIS A    13                                                      
 465     SER A    14                                                      
 465     SER A    15                                                      
 465     GLY A    16                                                      
 465     LEU A    17                                                      
 465     VAL A    18                                                      
 465     PRO A    19                                                      
 465     ARG A    20                                                      
 465     GLY A    21                                                      
 465     SER A    22                                                      
 465     HIS A    23                                                      
 465     GLN A   295                                                      
 500                                                                      
 500 GEOMETRY AND STEREOCHEMISTRY                                         
 500 SUBTOPIC: CLOSE CONTACTS IN SAME ASYMMETRIC UNIT                     
 500                                                                      
 500 THE FOLLOWING ATOMS ARE IN CLOSE CONTACT.                            
 500                                                                      
 500  ATM1  RES C  SSEQI   ATM2  RES C  SSEQI           DISTANCE          
 500   O    HOH A   409     O    HOH A   561              1.78            
 500   O    HOH A   402     O    HOH A   437              1.87            
 500   O    HOH A   403     O    HOH A   419              1.89            
 500   OE1  GLN A   166     O    HOH A   401              1.91            
 500   O3   GOL A   307     O    HOH A   402              1.92            
 500   O2   GOL A   307     O    HOH A   403              1.94            
 500   O    HOH A   656     O    HOH A   661              1.96            
 500   O    HOH A   441     O    HOH A   450              1.99            
 500   O    HOH A   407     O    HOH A   674              2.01            
 500   O    HOH A   430     O    HOH A   669              2.06            
 500   O    HOH A   721     O    HOH A   732              2.07            
 500   O    HOH A   528     O    HOH A   621              2.09            
 500   O    HOH A   711     O    HOH A   735              2.09            
 500   O    HOH A   482     O    HOH A   632              2.10            
 500   O    HOH A   401     O    HOH A   667              2.12            
 500   O    HOH A   407     O    HOH A   462              2.13            
 500   O    HOH A   624     O    HOH A   725              2.15            
 500   O    HOH A   441     O    HOH A   496              2.17            
 500   O    HOH A   619     O    HOH A   635              2.18            
 500                                                                      
 500 REMARK: NULL                                                         
 500                                                                      
 500 GEOMETRY AND STEREOCHEMISTRY                                         
 500 SUBTOPIC: CLOSE CONTACTS                                             
 500                                                                      
 500 THE FOLLOWING ATOMS THAT ARE RELATED BY CRYSTALLOGRAPHIC             
 500 SYMMETRY ARE IN CLOSE CONTACT.  AN ATOM LOCATED WITHIN 0.15          
 500 ANGSTROMS OF A SYMMETRY RELATED ATOM IS ASSUMED TO BE ON A           
 500 SPECIAL POSITION AND IS, THEREFORE, LISTED IN REMARK 375             
 500 INSTEAD OF REMARK 500.  ATOMS WITH NON-BLANK ALTERNATE               
 500 LOCATION INDICATORS ARE NOT INCLUDED IN THE CALCULATIONS.            
 500                                                                      
 500 DISTANCE CUTOFF:                                                     
 500 2.2 ANGSTROMS FOR CONTACTS NOT INVOLVING HYDROGEN ATOMS              
 500 1.6 ANGSTROMS FOR CONTACTS INVOLVING HYDROGEN ATOMS                  
 500                                                                      
 500  ATM1  RES C  SSEQI   ATM2  RES C  SSEQI  SSYMOP   DISTANCE          
 500   O    HOH A   466     O    HOH A   731     4455     2.12            
 500                                                                      
 500 REMARK: NULL                                                         
 500                                                                      
 500 GEOMETRY AND STEREOCHEMISTRY                                         
 500 SUBTOPIC: TORSION ANGLES                                             
 500                                                                      
 500 TORSION ANGLES OUTSIDE THE EXPECTED RAMACHANDRAN REGIONS:            
 500 (M=MODEL NUMBER; RES=RESIDUE NAME; C=CHAIN IDENTIFIER;               
 500 SSEQ=SEQUENCE NUMBER; I=INSERTION CODE).                             
 500                                                                      
 500 STANDARD TABLE:                                                      
 500 FORMAT:(10X,I3,1X,A3,1X,A1,I4,A1,4X,F7.2,3X,F7.2)                    
 500                                                                      
 500 EXPECTED VALUES: GJ KLEYWEGT AND TA JONES (1996). PHI/PSI-           
 500 CHOLOGY: RAMACHANDRAN REVISITED. STRUCTURE 4, 1395 - 1400            
 500                                                                      
 500  M RES CSSEQI        PSI       PHI                                   
 500    CYS A  69     -142.77     50.06                                   
 500    TRP A 105       63.58     62.06                                   
 500    GLN A 166     -172.40    -66.40                                   
 500    ARG A 220     -124.46   -116.50                                   
 500                                                                      
 500 REMARK: NULL                                                         
 525                                                                      
 525 SOLVENT                                                              
 525                                                                      
 525 THE SOLVENT MOLECULES HAVE CHAIN IDENTIFIERS THAT                    
 525 INDICATE THE POLYMER CHAIN WITH WHICH THEY ARE MOST                  
 525 CLOSELY ASSOCIATED. THE REMARK LISTS ALL THE SOLVENT                 
 525 MOLECULES WHICH ARE MORE THAN 5A AWAY FROM THE                       
 525 NEAREST POLYMER CHAIN (M = MODEL NUMBER;                             
 525 RES=RESIDUE NAME; C=CHAIN IDENTIFIER; SSEQ=SEQUENCE                  
 525 NUMBER; I=INSERTION CODE):                                           
 525                                                                      
 525  M RES CSSEQI                                                        
 525    HOH A 740        DISTANCE =  5.92 ANGSTROMS                       
 525    HOH A 741        DISTANCE =  6.18 ANGSTROMS                       
 525    HOH A 742        DISTANCE =  6.46 ANGSTROMS                       
 525    HOH A 743        DISTANCE =  6.76 ANGSTROMS                       

>  <DBREF>
 7A61 A   25   295  UNP    Q9F663   BLKPC_KLEPN     25    293             

>  <SEQADV>
 7A61 MET A    4  UNP  Q9F663              INITIATING METHIONINE          
 7A61 GLY A    5  UNP  Q9F663              EXPRESSION TAG                 
 7A61 SER A    6  UNP  Q9F663              EXPRESSION TAG                 
 7A61 SER A    7  UNP  Q9F663              EXPRESSION TAG                 
 7A61 HIS A    8  UNP  Q9F663              EXPRESSION TAG                 
 7A61 HIS A    9  UNP  Q9F663              EXPRESSION TAG                 
 7A61 HIS A   10  UNP  Q9F663              EXPRESSION TAG                 
 7A61 HIS A   11  UNP  Q9F663              EXPRESSION TAG                 
 7A61 HIS A   12  UNP  Q9F663              EXPRESSION TAG                 
 7A61 HIS A   13  UNP  Q9F663              EXPRESSION TAG                 
 7A61 SER A   14  UNP  Q9F663              EXPRESSION TAG                 
 7A61 SER A   15  UNP  Q9F663              EXPRESSION TAG                 
 7A61 GLY A   16  UNP  Q9F663              EXPRESSION TAG                 
 7A61 LEU A   17  UNP  Q9F663              EXPRESSION TAG                 
 7A61 VAL A   18  UNP  Q9F663              EXPRESSION TAG                 
 7A61 PRO A   19  UNP  Q9F663              EXPRESSION TAG                 
 7A61 ARG A   20  UNP  Q9F663              EXPRESSION TAG                 
 7A61 GLY A   21  UNP  Q9F663              EXPRESSION TAG                 
 7A61 SER A   22  UNP  Q9F663              EXPRESSION TAG                 
 7A61 HIS A   23  UNP  Q9F663              EXPRESSION TAG                 
 7A61 MET A   24  UNP  Q9F663              EXPRESSION TAG                 
 7A61 GLN A  166  UNP  Q9F663    GLU   165 ENGINEERED MUTATION            

>  <SEQRES>
   1 A  290  MET GLY SER SER HIS HIS HIS HIS HIS HIS SER SER GLY          
   2 A  290  LEU VAL PRO ARG GLY SER HIS MET LEU THR ASN LEU VAL          
   3 A  290  ALA GLU PRO PHE ALA LYS LEU GLU GLN ASP PHE GLY GLY          
   4 A  290  SER ILE GLY VAL TYR ALA MET ASP THR GLY SER GLY ALA          
   5 A  290  THR VAL SER TYR ARG ALA GLU GLU ARG PHE PRO LEU CYS          
   6 A  290  SER SER PHE LYS GLY PHE LEU ALA ALA ALA VAL LEU ALA          
   7 A  290  ARG SER GLN GLN GLN ALA GLY LEU LEU ASP THR PRO ILE          
   8 A  290  ARG TYR GLY LYS ASN ALA LEU VAL PRO TRP SER PRO ILE          
   9 A  290  SER GLU LYS TYR LEU THR THR GLY MET THR VAL ALA GLU          
  10 A  290  LEU SER ALA ALA ALA VAL GLN TYR SER ASP ASN ALA ALA          
  11 A  290  ALA ASN LEU LEU LEU LYS GLU LEU GLY GLY PRO ALA GLY          
  12 A  290  LEU THR ALA PHE MET ARG SER ILE GLY ASP THR THR PHE          
  13 A  290  ARG LEU ASP ARG TRP GLN LEU GLU LEU ASN SER ALA ILE          
  14 A  290  PRO GLY ASP ALA ARG ASP THR SER SER PRO ARG ALA VAL          
  15 A  290  THR GLU SER LEU GLN LYS LEU THR LEU GLY SER ALA LEU          
  16 A  290  ALA ALA PRO GLN ARG GLN GLN PHE VAL ASP TRP LEU LYS          
  17 A  290  GLY ASN THR THR GLY ASN HIS ARG ILE ARG ALA ALA VAL          
  18 A  290  PRO ALA ASP TRP ALA VAL GLY ASP LYS THR GLY THR CYS          
  19 A  290  GLY VAL TYR GLY THR ALA ASN ASP TYR ALA VAL VAL TRP          
  20 A  290  PRO THR GLY ARG ALA PRO ILE VAL LEU ALA VAL TYR THR          
  21 A  290  ARG ALA PRO ASN LYS ASP ASP LYS HIS SER GLU ALA VAL          
  22 A  290  ILE ALA ALA ALA ALA ARG LEU ALA LEU GLU GLY LEU GLY          
  23 A  290  VAL ASN GLY GLN                                              

>  <HET>
 R0B  A 301      32                                                       
 GOL  A 302      14                                                       
 SO4  A 303       5                                                       
 SO4  A 304       5                                                       
 SO4  A 305       5                                                       
 SO4  A 306       5                                                       
 GOL  A 307      14                                                       

>  <HETNAM>
     R0B (2~{R})-2-[(2~{S},3~{R})-1,3-BIS(OXIDANYL)-1-                    
   2 R0B  OXIDANYLIDENE-BUTAN-2-YL]-5-BUTYL-2,3-DIHYDRO-1,3-              
   3 R0B  THIAZOLE-4-CARBOXYLIC ACID                                      
     GOL GLYCEROL                                                         
     SO4 SULFATE ION                                                      

>  <HETSYN>
     R0B HYDROLYZED FAROPENEM (RING-OPEN FORM)                            
     GOL GLYCERIN; PROPANE-1,2,3-TRIOL                                    

>  <FORMUL>
   2  R0B    C12 H19 N O5 S                                               
   3  GOL    2(C3 H8 O3)                                                  
   4  SO4    4(O4 S 2-)                                                   
   9  HOH   *343(H2 O)                                                    

>  <HELIX>
   1 AA1 PRO A   32  GLY A   41  1                                  10    
   2 AA2 SER A   71  GLN A   85  1                                  15    
   3 AA3 GLY A   98  LEU A  102  5                                   5    
   4 AA4 ILE A  108  LEU A  113  5                                   6    
   5 AA5 VAL A  119  TYR A  129  1                                  11    
   6 AA6 ASP A  131  LEU A  142  1                                  12    
   7 AA7 GLY A  143  ILE A  155  1                                  13    
   8 AA8 LEU A  167  SER A  171  5                                   5    
   9 AA9 SER A  182  LEU A  195  1                                  14    
  10 AB1 ALA A  200  GLY A  213  1                                  14    
  11 AB2 ARG A  220  VAL A  225  5                                   6    
  12 AB3 SER A  275  LEU A  290  1                                  16    

>  <SHEET>
   1 AA1 5 THR A  56  TYR A  60  0                                        
   2 AA1 5 SER A  43  ASP A  50 -1  N  VAL A  46   O  TYR A  60           
   3 AA1 5 ILE A 259  ARG A 266 -1  O  VAL A 260   N  MET A  49           
   4 AA1 5 ALA A 244  TRP A 251 -1  N  VAL A 250   O  ILE A 259           
   5 AA1 5 ALA A 230  THR A 237 -1  N  ALA A 230   O  TRP A 251           
   1 AA2 2 PHE A  66  PRO A  67  0                                        
   2 AA2 2 THR A 180  SER A 181 -1  O  SER A 181   N  PHE A  66           
   1 AA3 2 PRO A  94  ILE A  95  0                                        
   2 AA3 2 MET A 117  THR A 118 -1  O  MET A 117   N  ILE A  95           

>  <SSBOND>
   1 CYS A   69    CYS A  238                          1555   1555  2.06  

>  <LINK>
       OG  SER A  70                 C18 R0B A 301     1555   1555  1.37  

>  <CISPEP>
   1 GLN A  166    LEU A  167          0        -2.40                     

>  <ORIGX1>
      1.000000  0.000000  0.000000        0.00000                         

>  <ORIGX2>
      0.000000  1.000000  0.000000        0.00000                         

>  <ORIGX3>
      0.000000  0.000000  1.000000        0.00000                         

>  <SCALE1>
      0.016519  0.000000  0.000000        0.00000                         

>  <SCALE2>
      0.000000  0.012495  0.000000        0.00000                         

>  <SCALE3>
      0.000000  0.000000  0.017856        0.00000                         

>  <ANISOU>
  706  N   SER A  70      656   1875    989   -173   -185     16       N  
  707  CA  SER A  70      717   1884   1035   -161   -143     35       C  
  708  C   SER A  70      772   1818   1239    -85    -95     33       C  
  709  O   SER A  70      723   1899   1235    -22   -191     40       O  
  710  CB  SER A  70      834   1908   1037    -43    -20     28       C  
  711  OG  SER A  70     1186   1968   1253    -79   -187     23       O  
 4293  C10 R0B A 301     4351   3856   4686    223   -138    -53       C  
 4294  C17 R0B A 301     1633   2760   2110   -155    -75    357       C  
 4295  C13 R0B A 301      932   2436   1087     13     75    110       C  
 4296  C15 R0B A 301     1177   2646   1626     19   -286    542       C  
 4297  C18 R0B A 301     1019   2158   1303    -71    -73      4       C  
 4298  C02 R0B A 301     1309   2206   1542   -210   -165   -382       C  
 4299  C04 R0B A 301     1174   2351   1813   -146   -141   -163       C  
 4300  C05 R0B A 301     1070   2579   1896    100    165     22       C  
 4301  C07 R0B A 301     1966   2854   2479    550     85    120       C  
 4302  C08 R0B A 301     3071   3276   3355    620    223     61       C  
 4303  C09 R0B A 301     3892   3610   4191    393      2     -1       C  
 4304  C14 R0B A 301      860   2387   1245    -75   -208    173       C  
 4305  N12 R0B A 301     1177   2384   1288    -17    100   -230       N  
 4306  O01 R0B A 301     2262   2505   1787     86     13   -359       O  
 4307  O03 R0B A 301     1300   2114   1997   -350   -140   -164       O1-
 4308  O16 R0B A 301     1581   2752   1874     87    -47    544       O  
 4309  O19 R0B A 301     1179   2133   1206    -72   -165    -37       O  
 4310  S06 R0B A 301     1114   2606   1891    133   -145    336       S  

>  <MASTER>
      339    0    7   12    9    0    0    6 2399    1   83   23          

$$$$
