start_structures/Ligand_Substrate/Ligand_Complex_Stripped/RM9_6V1J.pdb
 OpenBabel08222315203D

 22 24  0  0  1  0  0  0  0  0999 V2000
   19.0660   11.8930   12.6880 N   0  0  0  0  0  0  0  0  0  0  0  0
   19.7480   12.6830   13.7050 C   0  0  2  0  0  0  0  0  0  0  0  0
   18.9380   12.8800   14.9780 C   0  0  0  0  0  0  0  0  0  0  0  0
   19.4730   13.4460   15.9400 O   0  0  0  0  0  0  0  0  0  0  0  0
   20.1240   14.0550   13.1510 C   0  0  0  0  0  0  0  0  0  0  0  0
   21.1710   13.9520   12.1990 O   0  0  0  0  0  0  0  0  0  0  0  0
   20.9110   14.2960   10.7010 B   0  0  2  0  0  0  0  0  0  0  0  0
   18.2680   17.6050   10.7950 C   0  0  0  0  0  0  0  0  0  0  0  0
   19.3400   17.4030    9.6960 C   0  0  0  0  0  0  0  0  0  0  0  0
   19.2740   18.2140    8.5090 C   0  0  0  0  0  0  0  0  0  0  0  0
   20.2340   18.0570    7.5000 C   0  0  0  0  0  0  0  0  0  0  0  0
   21.2300   17.1270    7.6200 C   0  0  0  0  0  0  0  0  0  0  0  0
   21.3450   16.2960    8.7320 C   0  0  0  0  0  0  0  0  0  0  0  0
   20.4010   16.4640    9.7650 C   0  0  0  0  0  0  0  0  0  0  0  0
   22.3000   14.3010   10.0640 C   0  0  2  0  0  0  0  0  0  0  0  0
   23.4050   15.2510   10.1060 C   0  0  0  0  0  0  0  0  0  0  0  0
   22.4260   15.3000    8.9740 C   0  0  2  0  0  0  0  0  0  0  0  0
   18.3200   19.1130    8.3950 F   0  0  0  0  0  0  0  0  0  0  0  0
   18.6660   17.9600   11.9070 O   0  0  0  0  0  0  0  0  0  0  0  0
   17.1140   17.4240   10.4680 O   0  0  0  0  0  0  0  0  0  0  0  0
   20.4340   15.6560   10.9070 O   0  0  0  0  0  0  0  0  0  0  0  0
   19.8160   13.4860   10.4390 O   0  0  0  0  0  0  0  0  0  0  0  0
  2  1  1  6  0  0  0
  2  3  1  0  0  0  0
  3  4  2  0  0  0  0
  5  2  1  0  0  0  0
  6  7  1  0  0  0  0
  6  5  1  0  0  0  0
  7 15  1  0  0  0  0
  7 21  1  0  0  0  0
  7 22  1  6  0  0  0
  8  9  1  0  0  0  0
  8 19  2  0  0  0  0
  8 20  1  0  0  0  0
  9 10  2  0  0  0  0
  9 14  1  0  0  0  0
 10 11  1  0  0  0  0
 10 18  1  0  0  0  0
 11 12  2  0  0  0  0
 12 13  1  0  0  0  0
 13 14  2  0  0  0  0
 13 17  1  0  0  0  0
 14 21  1  0  0  0  0
 15 16  1  1  0  0  0
 15 17  1  0  0  0  0
 17 16  1  1  0  0  0
M  END
>  <HEADER>
    HYDROLASE/HYDROLASE INHIBITOR           20-NOV-19   6V1J              

>  <TITLE>
    STRUCTURE OF KPC-2 BOUND TO QPX7728 AT 1.30 A                         

>  <COMPND>
    MOL_ID: 1;                                                            
   2 MOLECULE: CARBAPENEM-HYDROLYZING BETA-LACTAMASE KPC;                 
   3 CHAIN: A;                                                            
   4 SYNONYM: CARBAPENEM-HYDROLYZING BETA-LACTAMASE KPC-1;                
   5 EC: 3.5.2.6;                                                         
   6 ENGINEERED: YES                                                      

>  <SOURCE>
    MOL_ID: 1;                                                            
   2 ORGANISM_SCIENTIFIC: KLEBSIELLA PNEUMONIAE;                          
   3 ORGANISM_TAXID: 573;                                                 
   4 GENE: BLA, KPC, KPC1;                                                
   5 EXPRESSION_SYSTEM: ESCHERICHIA COLI BL21(DE3);                       
   6 EXPRESSION_SYSTEM_TAXID: 469008                                      

>  <KEYWDS>
    CARBAPENEMASE, BORONATE, INHIBITOR, BETA-LACTAMASE, HYDROLASE,        
   2 HYDROLASE-HYDROLASE INHIBITOR COMPLEX                                

>  <EXPDTA>
    X-RAY DIFFRACTION                                                     

>  <AUTHOR>
    O.A.PEMBERTON,Y.CHEN                                                  

>  <REVDAT>
   2   05-AUG-20 6V1J    1       JRNL                                     
   1   25-MAR-20 6V1J    0                                                

>  <JRNL>
      AUTH   S.J.HECKER,K.R.REDDY,O.LOMOVSKAYA,D.C.GRIFFITH,              
      AUTH 2 D.RUBIO-APARICIO,K.NELSON,R.TSIVKOVSKI,D.SUN,M.SABET,        
      AUTH 3 Z.TARAZI,J.PARKINSON,M.TOTROV,S.H.BOYER,T.W.GLINKA,          
      AUTH 4 O.A.PEMBERTON,Y.CHEN,M.N.DUDLEY                              
      TITL   DISCOVERY OF CYCLIC BORONIC ACID QPX7728, AN                 
      TITL 2 ULTRABROAD-SPECTRUM INHIBITOR OF SERINE AND                  
      TITL 3 METALLO-BETA-LACTAMASES.                                     
      REF    J.MED.CHEM.                   V.  63  7491 2020              
      REFN                   ISSN 0022-2623                               
      PMID   32150407                                                     
      DOI    10.1021/ACS.JMEDCHEM.9B01976                                 

>  <REMARK>
   2                                                                      
   2 RESOLUTION.    1.30 ANGSTROMS.                                       
   3                                                                      
   3 REFINEMENT.                                                          
   3   PROGRAM     : PHENIX 1.17.1_3660                                   
   3   AUTHORS     : PAUL ADAMS,PAVEL AFONINE,VINCENT CHEN,IAN            
   3               : DAVIS,KRESHNA GOPAL,RALF GROSSE-KUNSTLEVE,           
   3               : LI-WEI HUNG,ROBERT IMMORMINO,TOM IOERGER,            
   3               : AIRLIE MCCOY,ERIK MCKEE,NIGEL MORIARTY,              
   3               : REETAL PAI,RANDY READ,JANE RICHARDSON,               
   3               : DAVID RICHARDSON,TOD ROMO,JIM SACCHETTINI,           
   3               : NICHOLAS SAUTER,JACOB SMITH,LAURENT                  
   3               : STORONI,TOM TERWILLIGER,PETER ZWART                  
   3                                                                      
   3    REFINEMENT TARGET : NULL                                          
   3                                                                      
   3  DATA USED IN REFINEMENT.                                            
   3   RESOLUTION RANGE HIGH (ANGSTROMS) : 1.30                           
   3   RESOLUTION RANGE LOW  (ANGSTROMS) : 40.80                          
   3   MIN(FOBS/SIGMA_FOBS)              : 1.340                          
   3   COMPLETENESS FOR RANGE        (%) : 100.0                          
   3   NUMBER OF REFLECTIONS             : 65014                          
   3                                                                      
   3  FIT TO DATA USED IN REFINEMENT.                                     
   3   R VALUE     (WORKING + TEST SET) : 0.146                           
   3   R VALUE            (WORKING SET) : 0.144                           
   3   FREE R VALUE                     : 0.180                           
   3   FREE R VALUE TEST SET SIZE   (%) : 4.840                           
   3   FREE R VALUE TEST SET COUNT      : 6018                            
   3                                                                      
   3  FIT TO DATA USED IN REFINEMENT (IN BINS).                           
   3   BIN  RESOLUTION RANGE  COMPL.    NWORK NFREE   RWORK  RFREE        
   3     1 40.8000 -  4.0400    1.00     3938   202  0.1514 0.1731        
   3     2  4.0400 -  3.2100    1.00     4017   149  0.1272 0.1652        
   3     3  3.2100 -  2.8000    1.00     3906   231  0.1341 0.1765        
   3     4  2.8000 -  2.5400    1.00     3901   264  0.1237 0.1617        
   3     5  2.5400 -  2.3600    1.00     3900   220  0.1322 0.1760        
   3     6  2.3600 -  2.2200    1.00     3931   199  0.1234 0.1603        
   3     7  2.2200 -  2.1100    1.00     4004   193  0.1136 0.1281        
   3     8  2.1100 -  2.0200    1.00     3941   194  0.1127 0.1525        
   3     9  2.0200 -  1.9400    1.00     3927   207  0.1112 0.1542        
   3    10  1.9400 -  1.8700    1.00     3974   196  0.1179 0.1678        
   3    11  1.8700 -  1.8200    1.00     3906   195  0.1181 0.1553        
   3    12  1.8200 -  1.7600    1.00     3950   187  0.1218 0.1709        
   3    13  1.7600 -  1.7200    1.00     3995   183  0.1223 0.1835        
   3    14  1.7200 -  1.6800    1.00     3952   203  0.1295 0.1753        
   3    15  1.6800 -  1.6400    1.00     3926   208  0.1351 0.1575        
   3    16  1.6400 -  1.6000    1.00     3938   202  0.1359 0.1746        
   3    17  1.6000 -  1.5700    1.00     3995   171  0.1409 0.1835        
   3    18  1.5700 -  1.5400    1.00     3962   181  0.1606 0.1806        
   3    19  1.5400 -  1.5100    1.00     3909   220  0.1635 0.2256        
   3    20  1.5100 -  1.4900    1.00     3934   220  0.1647 0.1667        
   3    21  1.4900 -  1.4600    1.00     3941   212  0.1777 0.2270        
   3    22  1.4600 -  1.4400    1.00     3977   181  0.1861 0.2196        
   3    23  1.4400 -  1.4200    1.00     3934   195  0.2006 0.2274        
   3    24  1.4200 -  1.4000    1.00     3953   200  0.2117 0.2625        
   3    25  1.4000 -  1.3800    1.00     3966   175  0.2228 0.2292        
   3    26  1.3800 -  1.3600    1.00     3876   213  0.2316 0.2779        
   3    27  1.3600 -  1.3500    1.00     3956   219  0.2498 0.2406        
   3    28  1.3500 -  1.3300    1.00     3917   200  0.2585 0.2786        
   3    29  1.3300 -  1.3100    1.00     3952   213  0.2731 0.3377        
   3    30  1.3100 -  1.3000    1.00     3932   185  0.2826 0.3219        
   3                                                                      
   3  BULK SOLVENT MODELLING.                                             
   3   METHOD USED        : NULL                                          
   3   SOLVENT RADIUS     : 1.11                                          
   3   SHRINKAGE RADIUS   : 0.90                                          
   3   K_SOL              : NULL                                          
   3   B_SOL              : NULL                                          
   3                                                                      
   3  ERROR ESTIMATES.                                                    
   3   COORDINATE ERROR (MAXIMUM-LIKELIHOOD BASED)     : 0.130            
   3   PHASE ERROR (DEGREES, MAXIMUM-LIKELIHOOD BASED) : 17.750           
   3                                                                      
   3  B VALUES.                                                           
   3   FROM WILSON PLOT           (A**2) : NULL                           
   3   MEAN B VALUE      (OVERALL, A**2) : 16.50                          
   3   OVERALL ANISOTROPIC B VALUE.                                       
   3    B11 (A**2) : NULL                                                 
   3    B22 (A**2) : NULL                                                 
   3    B33 (A**2) : NULL                                                 
   3    B12 (A**2) : NULL                                                 
   3    B13 (A**2) : NULL                                                 
   3    B23 (A**2) : NULL                                                 
   3                                                                      
   3  TWINNING INFORMATION.                                               
   3   FRACTION: NULL                                                     
   3   OPERATOR: NULL                                                     
   3                                                                      
   3  DEVIATIONS FROM IDEAL VALUES.                                       
   3                 RMSD          COUNT                                  
   3   BOND      :   NULL           NULL                                  
   3   ANGLE     :   NULL           NULL                                  
   3   CHIRALITY :   NULL           NULL                                  
   3   PLANARITY :   NULL           NULL                                  
   3   DIHEDRAL  :   NULL           NULL                                  
   3                                                                      
   3  TLS DETAILS                                                         
   3   NUMBER OF TLS GROUPS  : NULL                                       
   3                                                                      
   3  NCS DETAILS                                                         
   3   NUMBER OF NCS GROUPS : NULL                                        
   3                                                                      
   3  OTHER REFINEMENT REMARKS: NULL                                      
   4                                                                      
   4 6V1J COMPLIES WITH FORMAT V. 3.30, 13-JUL-11                         
 100                                                                      
 100 THIS ENTRY HAS BEEN PROCESSED BY RCSB ON 24-NOV-19.                  
 100 THE DEPOSITION ID IS D_1000245598.                                   
 200                                                                      
 200 EXPERIMENTAL DETAILS                                                 
 200  EXPERIMENT TYPE                : X-RAY DIFFRACTION                  
 200  DATE OF DATA COLLECTION        : 12-NOV-17                          
 200  TEMPERATURE           (KELVIN) : 100                                
 200  PH                             : NULL                               
 200  NUMBER OF CRYSTALS USED        : 1                                  
 200                                                                      
 200  SYNCHROTRON              (Y/N) : Y                                  
 200  RADIATION SOURCE               : APS                                
 200  BEAMLINE                       : 22-ID                              
 200  X-RAY GENERATOR MODEL          : NULL                               
 200  MONOCHROMATIC OR LAUE    (M/L) : M                                  
 200  WAVELENGTH OR RANGE        (A) : 1.0                                
 200  MONOCHROMATOR                  : NULL                               
 200  OPTICS                         : NULL                               
 200                                                                      
 200  DETECTOR TYPE                  : CCD                                
 200  DETECTOR MANUFACTURER          : MARMOSAIC 300 MM CCD               
 200  INTENSITY-INTEGRATION SOFTWARE : IMOSFLM 7.2.2                      
 200  DATA SCALING SOFTWARE          : AIMLESS 0.7.3                      
 200                                                                      
 200  NUMBER OF UNIQUE REFLECTIONS   : 65033                              
 200  RESOLUTION RANGE HIGH      (A) : 1.300                              
 200  RESOLUTION RANGE LOW       (A) : 45.340                             
 200  REJECTION CRITERIA  (SIGMA(I)) : NULL                               
 200                                                                      
 200 OVERALL.                                                             
 200  COMPLETENESS FOR RANGE     (%) : 100.0                              
 200  DATA REDUNDANCY                : 7.200                              
 200  R MERGE                    (I) : 0.16400                            
 200  R SYM                      (I) : NULL                               
 200  <I/SIGMA(I)> FOR THE DATA SET  : 9.6000                             
 200                                                                      
 200 IN THE HIGHEST RESOLUTION SHELL.                                     
 200  HIGHEST RESOLUTION SHELL, RANGE HIGH (A) : 1.30                     
 200  HIGHEST RESOLUTION SHELL, RANGE LOW  (A) : 1.32                     
 200  COMPLETENESS FOR SHELL     (%) : 100.0                              
 200  DATA REDUNDANCY IN SHELL       : 6.90                               
 200  R MERGE FOR SHELL          (I) : 1.99000                            
 200  R SYM FOR SHELL            (I) : NULL                               
 200  <I/SIGMA(I)> FOR SHELL         : NULL                               
 200                                                                      
 200 DIFFRACTION PROTOCOL: SINGLE WAVELENGTH                              
 200 METHOD USED TO DETERMINE THE STRUCTURE: MOLECULAR REPLACEMENT        
 200 SOFTWARE USED: PHASER 2.8.3                                          
 200 STARTING MODEL: 5UL8                                                 
 200                                                                      
 200 REMARK: NULL                                                         
 280                                                                      
 280 CRYSTAL                                                              
 280 SOLVENT CONTENT, VS   (%): 41.92                                     
 280 MATTHEWS COEFFICIENT, VM (ANGSTROMS**3/DA): 2.12                     
 280                                                                      
 280 CRYSTALLIZATION CONDITIONS: 2.0 M AMMONIUM SULFATE, 5% (V/V)         
 280  ETHANOL, VAPOR DIFFUSION, HANGING DROP, TEMPERATURE 293.15K         
 290                                                                      
 290 CRYSTALLOGRAPHIC SYMMETRY                                            
 290 SYMMETRY OPERATORS FOR SPACE GROUP: P 2 21 21                        
 290                                                                      
 290      SYMOP   SYMMETRY                                                
 290     NNNMMM   OPERATOR                                                
 290       1555   X,Y,Z                                                   
 290       2555   X,-Y,-Z                                                 
 290       3555   -X,Y+1/2,-Z+1/2                                         
 290       4555   -X,-Y+1/2,Z+1/2                                         
 290                                                                      
 290     WHERE NNN -> OPERATOR NUMBER                                     
 290           MMM -> TRANSLATION VECTOR                                  
 290                                                                      
 290 CRYSTALLOGRAPHIC SYMMETRY TRANSFORMATIONS                            
 290 THE FOLLOWING TRANSFORMATIONS OPERATE ON THE ATOM/HETATM             
 290 RECORDS IN THIS ENTRY TO PRODUCE CRYSTALLOGRAPHICALLY                
 290 RELATED MOLECULES.                                                   
 290   SMTRY1   1  1.000000  0.000000  0.000000        0.00000            
 290   SMTRY2   1  0.000000  1.000000  0.000000        0.00000            
 290   SMTRY3   1  0.000000  0.000000  1.000000        0.00000            
 290   SMTRY1   2  1.000000  0.000000  0.000000        0.00000            
 290   SMTRY2   2  0.000000 -1.000000  0.000000        0.00000            
 290   SMTRY3   2  0.000000  0.000000 -1.000000        0.00000            
 290   SMTRY1   3 -1.000000  0.000000  0.000000        0.00000            
 290   SMTRY2   3  0.000000  1.000000  0.000000       29.99500            
 290   SMTRY3   3  0.000000  0.000000 -1.000000       39.08000            
 290   SMTRY1   4 -1.000000  0.000000  0.000000        0.00000            
 290   SMTRY2   4  0.000000 -1.000000  0.000000       29.99500            
 290   SMTRY3   4  0.000000  0.000000  1.000000       39.08000            
 290                                                                      
 290 REMARK: NULL                                                         
 300                                                                      
 300 BIOMOLECULE: 1                                                       
 300 SEE REMARK 350 FOR THE AUTHOR PROVIDED AND/OR PROGRAM                
 300 GENERATED ASSEMBLY INFORMATION FOR THE STRUCTURE IN                  
 300 THIS ENTRY. THE REMARK MAY ALSO PROVIDE INFORMATION ON               
 300 BURIED SURFACE AREA.                                                 
 350                                                                      
 350 COORDINATES FOR A COMPLETE MULTIMER REPRESENTING THE KNOWN           
 350 BIOLOGICALLY SIGNIFICANT OLIGOMERIZATION STATE OF THE                
 350 MOLECULE CAN BE GENERATED BY APPLYING BIOMT TRANSFORMATIONS          
 350 GIVEN BELOW.  BOTH NON-CRYSTALLOGRAPHIC AND                          
 350 CRYSTALLOGRAPHIC OPERATIONS ARE GIVEN.                               
 350                                                                      
 350 BIOMOLECULE: 1                                                       
 350 AUTHOR DETERMINED BIOLOGICAL UNIT: MONOMERIC                         
 350 SOFTWARE DETERMINED QUATERNARY STRUCTURE: MONOMERIC                  
 350 SOFTWARE USED: PISA                                                  
 350 APPLY THE FOLLOWING TO CHAINS: A                                     
 350   BIOMT1   1  1.000000  0.000000  0.000000        0.00000            
 350   BIOMT2   1  0.000000  1.000000  0.000000        0.00000            
 350   BIOMT3   1  0.000000  0.000000  1.000000        0.00000            
 375                                                                      
 375 SPECIAL POSITION                                                     
 375 THE FOLLOWING ATOMS ARE FOUND TO BE WITHIN 0.15 ANGSTROMS            
 375 OF A SYMMETRY RELATED ATOM AND ARE ASSUMED TO BE ON SPECIAL          
 375 POSITIONS.                                                           
 375                                                                      
 375 ATOM RES CSSEQI                                                      
 375      HOH A 497  LIES ON A SPECIAL POSITION.                          
 465                                                                      
 465 MISSING RESIDUES                                                     
 465 THE FOLLOWING RESIDUES WERE NOT LOCATED IN THE                       
 465 EXPERIMENT. (M=MODEL NUMBER; RES=RESIDUE NAME; C=CHAIN               
 465 IDENTIFIER; SSSEQ=SEQUENCE NUMBER; I=INSERTION CODE.)                
 465                                                                      
 465   M RES C SSSEQI                                                     
 465     MET A     4                                                      
 465     GLY A     5                                                      
 465     SER A     6                                                      
 465     SER A     7                                                      
 465     HIS A     8                                                      
 465     HIS A     9                                                      
 465     HIS A    10                                                      
 465     HIS A    11                                                      
 465     HIS A    12                                                      
 465     HIS A    13                                                      
 465     SER A    14                                                      
 465     SER A    15                                                      
 465     GLY A    16                                                      
 465     LEU A    17                                                      
 465     VAL A    18                                                      
 465     PRO A    19                                                      
 465     ARG A    20                                                      
 465     GLY A    21                                                      
 465     SER A    22                                                      
 465     HIS A    23                                                      
 500                                                                      
 500 GEOMETRY AND STEREOCHEMISTRY                                         
 500 SUBTOPIC: TORSION ANGLES                                             
 500                                                                      
 500 TORSION ANGLES OUTSIDE THE EXPECTED RAMACHANDRAN REGIONS:            
 500 (M=MODEL NUMBER; RES=RESIDUE NAME; C=CHAIN IDENTIFIER;               
 500 SSEQ=SEQUENCE NUMBER; I=INSERTION CODE).                             
 500                                                                      
 500 STANDARD TABLE:                                                      
 500 FORMAT:(10X,I3,1X,A3,1X,A1,I4,A1,4X,F7.2,3X,F7.2)                    
 500                                                                      
 500 EXPECTED VALUES: GJ KLEYWEGT AND TA JONES (1996). PHI/PSI-           
 500 CHOLOGY: RAMACHANDRAN REVISITED. STRUCTURE 4, 1395 - 1400            
 500                                                                      
 500  M RES CSSEQI        PSI       PHI                                   
 500    CYS A  69     -142.71     47.47                                   
 500    TRP A 105       61.03     64.00                                   
 500    ARG A 220     -123.07   -114.58                                   
 500                                                                      
 500 REMARK: NULL                                                         
 525                                                                      
 525 SOLVENT                                                              
 525                                                                      
 525 THE SOLVENT MOLECULES HAVE CHAIN IDENTIFIERS THAT                    
 525 INDICATE THE POLYMER CHAIN WITH WHICH THEY ARE MOST                  
 525 CLOSELY ASSOCIATED. THE REMARK LISTS ALL THE SOLVENT                 
 525 MOLECULES WHICH ARE MORE THAN 5A AWAY FROM THE                       
 525 NEAREST POLYMER CHAIN (M = MODEL NUMBER;                             
 525 RES=RESIDUE NAME; C=CHAIN IDENTIFIER; SSEQ=SEQUENCE                  
 525 NUMBER; I=INSERTION CODE):                                           
 525                                                                      
 525  M RES CSSEQI                                                        
 525    HOH A 723        DISTANCE =  6.04 ANGSTROMS                       
 800                                                                      
 800 SITE                                                                 
 800 SITE_IDENTIFIER: AC1                                                 
 800 EVIDENCE_CODE: SOFTWARE                                              
 800 SITE_DESCRIPTION: binding site for residue RM9 A 301                 
 800                                                                      
 800 SITE_IDENTIFIER: AC2                                                 
 800 EVIDENCE_CODE: SOFTWARE                                              
 800 SITE_DESCRIPTION: binding site for residue QNA A 302                 
 800                                                                      
 800 SITE_IDENTIFIER: AC3                                                 
 800 EVIDENCE_CODE: SOFTWARE                                              
 800 SITE_DESCRIPTION: binding site for residue GOL A 303                 
 800                                                                      
 800 SITE_IDENTIFIER: AC4                                                 
 800 EVIDENCE_CODE: SOFTWARE                                              
 800 SITE_DESCRIPTION: binding site for residue SO4 A 304                 
 800                                                                      
 800 SITE_IDENTIFIER: AC5                                                 
 800 EVIDENCE_CODE: SOFTWARE                                              
 800 SITE_DESCRIPTION: binding site for residue SO4 A 305                 

>  <DBREF>
 6V1J A   25   295  UNP    Q9F663   BLKPC_KLEPN     25    293             

>  <SEQADV>
 6V1J MET A    4  UNP  Q9F663              EXPRESSION TAG                 
 6V1J GLY A    5  UNP  Q9F663              EXPRESSION TAG                 
 6V1J SER A    6  UNP  Q9F663              EXPRESSION TAG                 
 6V1J SER A    7  UNP  Q9F663              EXPRESSION TAG                 
 6V1J HIS A    8  UNP  Q9F663              EXPRESSION TAG                 
 6V1J HIS A    9  UNP  Q9F663              EXPRESSION TAG                 
 6V1J HIS A   10  UNP  Q9F663              EXPRESSION TAG                 
 6V1J HIS A   11  UNP  Q9F663              EXPRESSION TAG                 
 6V1J HIS A   12  UNP  Q9F663              EXPRESSION TAG                 
 6V1J HIS A   13  UNP  Q9F663              EXPRESSION TAG                 
 6V1J SER A   14  UNP  Q9F663              EXPRESSION TAG                 
 6V1J SER A   15  UNP  Q9F663              EXPRESSION TAG                 
 6V1J GLY A   16  UNP  Q9F663              EXPRESSION TAG                 
 6V1J LEU A   17  UNP  Q9F663              EXPRESSION TAG                 
 6V1J VAL A   18  UNP  Q9F663              EXPRESSION TAG                 
 6V1J PRO A   19  UNP  Q9F663              EXPRESSION TAG                 
 6V1J ARG A   20  UNP  Q9F663              EXPRESSION TAG                 
 6V1J GLY A   21  UNP  Q9F663              EXPRESSION TAG                 
 6V1J SER A   22  UNP  Q9F663              EXPRESSION TAG                 
 6V1J HIS A   23  UNP  Q9F663              EXPRESSION TAG                 
 6V1J MET A   24  UNP  Q9F663              EXPRESSION TAG                 

>  <SEQRES>
   1 A  290  MET GLY SER SER HIS HIS HIS HIS HIS HIS SER SER GLY          
   2 A  290  LEU VAL PRO ARG GLY SER HIS MET LEU THR ASN LEU VAL          
   3 A  290  ALA GLU PRO PHE ALA LYS LEU GLU GLN ASP PHE GLY GLY          
   4 A  290  SER ILE GLY VAL TYR ALA MET ASP THR GLY SER GLY ALA          
   5 A  290  THR VAL SER TYR ARG ALA GLU GLU ARG PHE PRO LEU CYS          
   6 A  290  SER SER PHE LYS GLY PHE LEU ALA ALA ALA VAL LEU ALA          
   7 A  290  ARG SER GLN GLN GLN ALA GLY LEU LEU ASP THR PRO ILE          
   8 A  290  ARG TYR GLY LYS ASN ALA LEU VAL PRO TRP SER PRO ILE          
   9 A  290  SER GLU LYS TYR LEU THR THR GLY MET THR VAL ALA GLU          
  10 A  290  LEU SER ALA ALA ALA VAL GLN TYR SER ASP ASN ALA ALA          
  11 A  290  ALA ASN LEU LEU LEU LYS GLU LEU GLY GLY PRO ALA GLY          
  12 A  290  LEU THR ALA PHE MET ARG SER ILE GLY ASP THR THR PHE          
  13 A  290  ARG LEU ASP ARG TRP GLU LEU GLU LEU ASN SER ALA ILE          
  14 A  290  PRO GLY ASP ALA ARG ASP THR SER SER PRO ARG ALA VAL          
  15 A  290  THR GLU SER LEU GLN LYS LEU THR LEU GLY SER ALA LEU          
  16 A  290  ALA ALA PRO GLN ARG GLN GLN PHE VAL ASP TRP LEU LYS          
  17 A  290  GLY ASN THR THR GLY ASN HIS ARG ILE ARG ALA ALA VAL          
  18 A  290  PRO ALA ASP TRP ALA VAL GLY ASP LYS THR GLY THR CYS          
  19 A  290  GLY VAL TYR GLY THR ALA ASN ASP TYR ALA VAL VAL TRP          
  20 A  290  PRO THR GLY ARG ALA PRO ILE VAL LEU ALA VAL TYR THR          
  21 A  290  ARG ALA PRO ASN LYS ASP ASP LYS HIS SER GLU ALA VAL          
  22 A  290  ILE ALA ALA ALA ALA ARG LEU ALA LEU GLU GLY LEU GLY          
  23 A  290  VAL ASN GLY GLN                                              

>  <HET>
 RM9  A 301      16                                                       
 QNA  A 302      17                                                       
 GOL  A 303       6                                                       
 SO4  A 304       5                                                       
 SO4  A 305       5                                                       

>  <HETNAM>
     RM9 (1AR,7BS)-5-FLUORO-2-HYDROXY-1,1A,2,7B-                          
   2 RM9  TETRAHYDROCYCLOPROPA[C][1,2]BENZOXABORININE-4-                  
   3 RM9  CARBOXYLIC ACID                                                 
     QNA (1~{A}~{R},7~{B}~{S})-5-FLUORANYL-2,2-BIS(OXIDANYL)-             
   2 QNA  1~{A},7~{B}-DIHYDRO-1~{H}-CYCLOPROPA[C][1,                      
   3 QNA  2]BENZOXABORININE-4-CARBOXYLIC ACID                             
     GOL GLYCEROL                                                         
     SO4 SULFATE ION                                                      

>  <HETSYN>
     GOL GLYCERIN; PROPANE-1,2,3-TRIOL                                    

>  <FORMUL>
   2  RM9    C10 H8 B F O4                                                
   3  QNA    C10 H9 B F O5 1-                                             
   4  GOL    C3 H8 O3                                                     
   5  SO4    2(O4 S 2-)                                                   
   7  HOH   *323(H2 O)                                                    

>  <HELIX>
   1 AA1 PRO A   32  GLY A   41  1                                  10    
   2 AA2 SER A   71  GLN A   87  1                                  17    
   3 AA3 GLY A   98  LEU A  102  5                                   5    
   4 AA4 ILE A  108  LEU A  113  5                                   6    
   5 AA5 VAL A  119  SER A  130  1                                  12    
   6 AA6 ASP A  131  GLY A  143  1                                  13    
   7 AA7 GLY A  144  ILE A  155  1                                  12    
   8 AA8 LEU A  167  SER A  171  5                                   5    
   9 AA9 SER A  182  LEU A  195  1                                  14    
  10 AB1 ALA A  200  GLY A  213  1                                  14    
  11 AB2 ARG A  220  VAL A  225  5                                   6    
  12 AB3 SER A  275  LEU A  290  1                                  16    

>  <SHEET>
   1 AA1 5 THR A  56  TYR A  60  0                                        
   2 AA1 5 SER A  43  ASP A  50 -1  N  VAL A  46   O  TYR A  60           
   3 AA1 5 ILE A 259  ARG A 266 -1  O  TYR A 264   N  GLY A  45           
   4 AA1 5 ALA A 244  TRP A 251 -1  N  VAL A 250   O  ILE A 259           
   5 AA1 5 ALA A 230  THR A 237 -1  N  ALA A 230   O  TRP A 251           
   1 AA2 2 PHE A  66  PRO A  67  0                                        
   2 AA2 2 THR A 180  SER A 181 -1  O  SER A 181   N  PHE A  66           
   1 AA3 2 PRO A  94  ILE A  95  0                                        
   2 AA3 2 MET A 117  THR A 118 -1  O  MET A 117   N  ILE A  95           

>  <SSBOND>
   1 CYS A   69    CYS A  238                          1555   1555  2.05  

>  <LINK>
       OG  SER A  70                 B12 RM9 A 301     1555   1555  1.56  

>  <CISPEP>
   1 GLU A  166    LEU A  167          0         7.17                     

>  <SITE>
   1 AC1 13 CYS A  69  SER A  70  LYS A  73  TRP A 105                    
   2 AC1 13 SER A 130  ASN A 132  ARG A 220  LYS A 234                    
   3 AC1 13 THR A 235  GLY A 236  THR A 237  HOH A 519                    
   4 AC1 13 HOH A 619                                                     
   1 AC2 10 ARG A  83  PRO A 107  ILE A 108  LYS A 111                    
   2 AC2 10 TYR A 129  LEU A 142  GLY A 147  HOH A 465                    
   3 AC2 10 HOH A 482  HOH A 496                                          
   1 AC3  7 GLN A 205  LYS A 212  ALA A 230  TRP A 251                    
   2 AC3  7 HOH A 420  HOH A 452  HOH A 466                               
   1 AC4  5 SER A 275  GLU A 276  ALA A 277  HOH A 514                    
   2 AC4  5 HOH A 539                                                     
   1 AC5  4 ARG A  61  THR A 254  GLY A 255  HOH A 644                    

>  <ORIGX1>
      1.000000  0.000000  0.000000        0.00000                         

>  <ORIGX2>
      0.000000  1.000000  0.000000        0.00000                         

>  <ORIGX3>
      0.000000  0.000000  1.000000        0.00000                         

>  <SCALE1>
      0.017966  0.000000  0.000000        0.00000                         

>  <SCALE2>
      0.000000  0.016669  0.000000        0.00000                         

>  <SCALE3>
      0.000000  0.000000  0.012794        0.00000                         

>  <ANISOU>
  353  N   SER A  70      778    441   1673    -55     46   -121       N  
  354  CA  SER A  70      760    454   1611   -123     70   -100       C  
  355  C   SER A  70      573    524   1593     11    -73    -26       C  
  356  O   SER A  70      972    529   1691   -193    -96   -138       O  
  357  CB  SER A  70      782    494   1766    -16    271   -186       C  
  358  OG  SER A  70      825    578   1865   -101    265   -312       O  
 2092  B12 RM9 A 301      910    450   1740     57     54    -82       B  
 2093  C02 RM9 A 301     1153    537   1935    -99     52   -214       C  
 2094  C04 RM9 A 301     1094    514   2046    -12     75    -20       C  
 2095  C05 RM9 A 301     1176    820   2319    304    356    358       C  
 2096  C07 RM9 A 301     1416   1008   2392    415    344    333       C  
 2097  C08 RM9 A 301     1272    720   2123    282    164    330       C  
 2098  C09 RM9 A 301      889    616   2075     66    238    -28       C  
 2099  C10 RM9 A 301     1098    486   1927     -1    116    -25       C  
 2100  C14 RM9 A 301     1027    564   1897     38    -61    -29       C  
 2101  C15 RM9 A 301     1210    615   2052   -233   -129    137       C  
 2102  C16 RM9 A 301      956    522   1938    131     26     28       C  
 2103  F06 RM9 A 301     1370   1143   2519    505    395    516       F  
 2104  O01 RM9 A 301     1104   1069   2111    -88    -75   -380       O  
 2105  O03 RM9 A 301     1172    621   2061     43     75   -117       O  
 2106  O11 RM9 A 301      975    517   1778   -187    124    -61       O  
 2107  O13 RM9 A 301      797    626   1930    -35    142     43       O  

>  <MASTER>
      307    0    5   12    9    0   12    6 2388    1   52   23          

$$$$
