start_structures/Ligand_Substrate/Ligand_Complex_Stripped/S1Y_3S1Y.pdb
 OpenBabel08222315213D

 31 32  0  0  1  0  0  0  0  0999 V2000
    7.0170    8.1310   16.2210 N   0  0  0  0  0  0  0  0  0  0  0  0
    6.5770    7.3340   17.3560 C   0  0  2  0  0  0  0  0  0  0  0  0
    6.3450    5.8640   17.0870 C   0  0  0  0  0  0  0  0  0  0  0  0
    6.1750    5.0960   18.0170 O   0  0  0  0  0  0  0  0  0  0  0  0
    5.3150    7.9320   17.9420 C   0  0  0  0  0  0  0  0  0  0  0  0
    5.5990    9.1660   18.5510 O   0  0  0  0  0  0  0  0  0  0  0  0
    1.3230    9.9260   17.7920 S   0  0  0  0  0  0  0  0  0  0  0  0
    1.0680   10.3550   16.5220 O   0  0  0  0  0  0  0  0  0  0  0  0
    0.5160   10.8830   18.7680 O   0  0  0  0  0  0  0  0  0  0  0  0
    1.0150    8.6060   17.9310 O   0  0  0  0  0  0  0  0  0  0  0  0
    2.9270    9.9870   18.1360 N   0  0  0  0  0  0  0  0  0  0  0  0
    3.3320   11.4040   18.4230 C   0  0  2  0  0  0  0  0  0  0  0  0
    3.2240   12.2920   17.1610 C   0  0  0  0  0  0  0  0  0  0  0  0
    4.3540   13.2730   17.3170 C   0  0  0  0  0  0  0  0  0  0  0  0
    5.3330   12.5400   18.0720 N   0  0  0  0  0  0  0  0  0  0  0  0
    4.8290   11.3170   18.6110 C   0  0  2  0  0  0  0  0  0  0  0  0
    5.3100   10.1330   17.8110 C   0  0  0  0  0  0  0  0  0  0  0  0
    5.5140   10.1860   16.6060 O   0  0  0  0  0  0  0  0  0  0  0  0
    6.6620   12.7290   18.1000 C   0  0  0  0  0  0  0  0  0  0  0  0
    7.4170   11.9350   18.5590 O   0  0  0  0  0  0  0  0  0  0  0  0
    7.1580   14.0150   17.7630 N   0  0  0  0  0  0  0  0  0  0  0  0
    8.6080   14.2400   17.7760 C   0  0  1  0  0  0  0  0  0  0  0  0
    8.9260   14.4510   16.2960 C   0  0  0  0  0  0  0  0  0  0  0  0
   10.4240   14.7030   16.1750 C   0  0  0  0  0  0  0  0  0  0  0  0
   10.7790   16.1650   16.3360 C   0  0  0  0  0  0  0  0  0  0  0  0
   10.4860   16.8010   17.6240 N   0  0  0  0  0  0  0  0  0  0  0  0
   12.0100   17.1840   17.8160 C   0  0  0  0  0  0  0  0  0  0  0  0
   13.0000   16.2310   17.0070 C   0  0  0  0  0  0  0  0  0  0  0  0
   14.2530   16.0970   17.8280 N   0  0  0  0  0  0  0  0  0  0  0  0
   10.2290   15.8840   18.7690 C   0  0  0  0  0  0  0  0  0  0  0  0
    8.7570   15.4550   18.6750 C   0  0  0  0  0  0  0  0  0  0  0  0
  2  1  1  6  0  0  0
  2  5  1  0  0  0  0
  3  2  1  0  0  0  0
  3  4  2  0  0  0  0
  5  6  1  0  0  0  0
  6 17  1  0  0  0  0
  7  8  1  0  0  0  0
  7  9  1  0  0  0  0
  7 10  1  0  0  0  0
  7 11  1  0  0  0  0
 12 11  1  6  0  0  0
 12 13  1  0  0  0  0
 12 16  1  0  0  0  0
 13 14  1  0  0  0  0
 14 15  1  0  0  0  0
 15 16  1  0  0  0  0
 15 19  1  0  0  0  0
 16 17  1  6  0  0  0
 17 18  2  0  0  0  0
 19 20  2  0  0  0  0
 19 21  1  0  0  0  0
 22 21  1  6  0  0  0
 22 23  1  0  0  0  0
 22 31  1  0  0  0  0
 23 24  1  0  0  0  0
 24 25  1  0  0  0  0
 25 26  1  0  0  0  0
 26 27  1  0  0  0  0
 26 30  1  0  0  0  0
 27 28  1  0  0  0  0
 28 29  1  0  0  0  0
 30 31  1  0  0  0  0
M  END
>  <HEADER>
    HYDROLASE/HYDROLASE INHIBITOR           16-MAY-11   3S1Y              

>  <TITLE>
    AMP-C BETA-LACTAMASE (PSEUDOMONAS AERUGINOSA) IN COMPLEX WITH A BETA- 
   2 LACTAMASE INHIBITOR                                                  

>  <COMPND>
    MOL_ID: 1;                                                            
   2 MOLECULE: BETA-LACTAMASE;                                            
   3 CHAIN: A;                                                            
   4 SYNONYM: CEPHALOSPORINASE;                                           
   5 EC: 3.5.2.6;                                                         
   6 ENGINEERED: YES;                                                     
   7 MUTATION: YES                                                        

>  <SOURCE>
    MOL_ID: 1;                                                            
   2 ORGANISM_SCIENTIFIC: PSEUDOMONAS AERUGINOSA;                         
   3 ORGANISM_TAXID: 287;                                                 
   4 GENE: AMPC, PA4110;                                                  
   5 EXPRESSION_SYSTEM: ESCHERICHIA COLI;                                 
   6 EXPRESSION_SYSTEM_TAXID: 562;                                        
   7 EXPRESSION_SYSTEM_VECTOR_TYPE: PLASMID;                              
   8 EXPRESSION_SYSTEM_PLASMID: PET 26                                    

>  <KEYWDS>
    HYDROLASE, HYDROLASE-HYDROLASE INHIBITOR COMPLEX                      

>  <EXPDTA>
    X-RAY DIFFRACTION                                                     

>  <AUTHOR>
    G.SCAPIN,J.LU,P.M.D.FITZGERALD,N.SHARMA                               

>  <REVDAT>
   2   26-JUN-13 3S1Y    1       JRNL   VERSN                             
   1   29-JUN-11 3S1Y    0                                                

>  <JRNL>
      AUTH   H.CHEN,T.A.BLIZZARD,S.KIM,J.WU,K.YOUNG,Y.W.PARK,A.M.OGAWA,   
      AUTH 2 S.RAGHOOBAR,R.E.PAINTER,D.WISNIEWSKI,N.HAIRSTON,             
      AUTH 3 P.FITZGERALD,N.SHARMA,G.SCAPIN,J.LU,J.HERMES,M.L.HAMMOND     
      TITL   SIDE CHAIN SAR OF BICYCLIC BETA-LACTAMASE INHIBITORS (BLIS). 
      TITL 2 2. N-ALKYLATED AND OPEN CHAIN ANALOGS OF MK-8712             
      REF    BIOORG.MED.CHEM.LETT.         V.  21  4267 2011              
      REFN                   ISSN 0960-894X                               
      PMID   21676616                                                     
      DOI    10.1016/J.BMCL.2011.05.065                                   

>  <REMARK>
   2                                                                      
   2 RESOLUTION.    1.40 ANGSTROMS.                                       
   3                                                                      
   3 REFINEMENT.                                                          
   3   PROGRAM     : REFMAC 5.5.0102                                      
   3   AUTHORS     : MURSHUDOV,VAGIN,DODSON                               
   3                                                                      
   3    REFINEMENT TARGET : MAXIMUM LIKELIHOOD                            
   3                                                                      
   3  DATA USED IN REFINEMENT.                                            
   3   RESOLUTION RANGE HIGH (ANGSTROMS) : 1.40                           
   3   RESOLUTION RANGE LOW  (ANGSTROMS) : 30.00                          
   3   DATA CUTOFF            (SIGMA(F)) : NULL                           
   3   COMPLETENESS FOR RANGE        (%) : 93.8                           
   3   NUMBER OF REFLECTIONS             : 54755                          
   3                                                                      
   3  FIT TO DATA USED IN REFINEMENT.                                     
   3   CROSS-VALIDATION METHOD          : THROUGHOUT                      
   3   FREE R VALUE TEST SET SELECTION  : RANDOM                          
   3   R VALUE     (WORKING + TEST SET) : 0.182                           
   3   R VALUE            (WORKING SET) : 0.181                           
   3   FREE R VALUE                     : 0.202                           
   3   FREE R VALUE TEST SET SIZE   (%) : 5.100                           
   3   FREE R VALUE TEST SET COUNT      : 2927                            
   3                                                                      
   3  FIT IN THE HIGHEST RESOLUTION BIN.                                  
   3   TOTAL NUMBER OF BINS USED           : 20                           
   3   BIN RESOLUTION RANGE HIGH       (A) : 1.40                         
   3   BIN RESOLUTION RANGE LOW        (A) : 1.44                         
   3   REFLECTION IN BIN     (WORKING SET) : 3715                         
   3   BIN COMPLETENESS (WORKING+TEST) (%) : 86.89                        
   3   BIN R VALUE           (WORKING SET) : 0.2550                       
   3   BIN FREE R VALUE SET COUNT          : 183                          
   3   BIN FREE R VALUE                    : 0.2900                       
   3                                                                      
   3  NUMBER OF NON-HYDROGEN ATOMS USED IN REFINEMENT.                    
   3   PROTEIN ATOMS            : 2768                                    
   3   NUCLEIC ACID ATOMS       : 0                                       
   3   HETEROGEN ATOMS          : 34                                      
   3   SOLVENT ATOMS            : 425                                     
   3                                                                      
   3  B VALUES.                                                           
   3   FROM WILSON PLOT           (A**2) : 22.30                          
   3   MEAN B VALUE      (OVERALL, A**2) : 11.66                          
   3   OVERALL ANISOTROPIC B VALUE.                                       
   3    B11 (A**2) : -0.83000                                             
   3    B22 (A**2) : 0.24000                                              
   3    B33 (A**2) : 0.59000                                              
   3    B12 (A**2) : 0.00000                                              
   3    B13 (A**2) : 0.00000                                              
   3    B23 (A**2) : 0.00000                                              
   3                                                                      
   3  ESTIMATED OVERALL COORDINATE ERROR.                                 
   3   ESU BASED ON R VALUE                            (A): NULL          
   3   ESU BASED ON FREE R VALUE                       (A): 0.072         
   3   ESU BASED ON MAXIMUM LIKELIHOOD                 (A): 0.044         
   3   ESU FOR B VALUES BASED ON MAXIMUM LIKELIHOOD (A**2): 2.392         
   3                                                                      
   3 CORRELATION COEFFICIENTS.                                            
   3   CORRELATION COEFFICIENT FO-FC      : 0.963                         
   3   CORRELATION COEFFICIENT FO-FC FREE : 0.955                         
   3                                                                      
   3  RMS DEVIATIONS FROM IDEAL VALUES        COUNT    RMS    WEIGHT      
   3   BOND LENGTHS REFINED ATOMS        (A):  2951 ; 0.010 ; 0.022       
   3   BOND LENGTHS OTHERS               (A):  NULL ;  NULL ;  NULL       
   3   BOND ANGLES REFINED ATOMS   (DEGREES):  4036 ; 1.194 ; 1.985       
   3   BOND ANGLES OTHERS          (DEGREES):  NULL ;  NULL ;  NULL       
   3   TORSION ANGLES, PERIOD 1    (DEGREES):   384 ; 5.771 ; 5.000       
   3   TORSION ANGLES, PERIOD 2    (DEGREES):   135 ;32.069 ;23.481       
   3   TORSION ANGLES, PERIOD 3    (DEGREES):   456 ;12.648 ;15.000       
   3   TORSION ANGLES, PERIOD 4    (DEGREES):    24 ;12.755 ;15.000       
   3   CHIRAL-CENTER RESTRAINTS       (A**3):   437 ; 0.066 ; 0.200       
   3   GENERAL PLANES REFINED ATOMS      (A):  2311 ; 0.005 ; 0.021       
   3   GENERAL PLANES OTHERS             (A):  NULL ;  NULL ;  NULL       
   3   NON-BONDED CONTACTS REFINED ATOMS (A):  NULL ;  NULL ;  NULL       
   3   NON-BONDED CONTACTS OTHERS        (A):  NULL ;  NULL ;  NULL       
   3   NON-BONDED TORSION REFINED ATOMS  (A):  NULL ;  NULL ;  NULL       
   3   NON-BONDED TORSION OTHERS         (A):  NULL ;  NULL ;  NULL       
   3   H-BOND (X...Y) REFINED ATOMS      (A):  NULL ;  NULL ;  NULL       
   3   H-BOND (X...Y) OTHERS             (A):  NULL ;  NULL ;  NULL       
   3   POTENTIAL METAL-ION REFINED ATOMS (A):  NULL ;  NULL ;  NULL       
   3   POTENTIAL METAL-ION OTHERS        (A):  NULL ;  NULL ;  NULL       
   3   SYMMETRY VDW REFINED ATOMS        (A):  NULL ;  NULL ;  NULL       
   3   SYMMETRY VDW OTHERS               (A):  NULL ;  NULL ;  NULL       
   3   SYMMETRY H-BOND REFINED ATOMS     (A):  NULL ;  NULL ;  NULL       
   3   SYMMETRY H-BOND OTHERS            (A):  NULL ;  NULL ;  NULL       
   3   SYMMETRY METAL-ION REFINED ATOMS  (A):  NULL ;  NULL ;  NULL       
   3   SYMMETRY METAL-ION OTHERS         (A):  NULL ;  NULL ;  NULL       
   3                                                                      
   3  ISOTROPIC THERMAL FACTOR RESTRAINTS.     COUNT   RMS    WEIGHT      
   3   MAIN-CHAIN BOND REFINED ATOMS  (A**2):  1833 ; 0.410 ; 1.500       
   3   MAIN-CHAIN BOND OTHER ATOMS    (A**2):  NULL ;  NULL ;  NULL       
   3   MAIN-CHAIN ANGLE REFINED ATOMS (A**2):  2934 ; 0.709 ; 2.000       
   3   MAIN-CHAIN ANGLE OTHER ATOMS   (A**2):  NULL ;  NULL ;  NULL       
   3   SIDE-CHAIN BOND REFINED ATOMS  (A**2):  1118 ; 1.316 ; 3.000       
   3   SIDE-CHAIN BOND OTHER ATOMS    (A**2):  NULL ;  NULL ;  NULL       
   3   SIDE-CHAIN ANGLE REFINED ATOMS (A**2):  1090 ; 2.000 ; 4.500       
   3   SIDE-CHAIN ANGLE OTHER ATOMS   (A**2):  NULL ;  NULL ;  NULL       
   3   LONG RANGE B REFINED ATOMS     (A**2):  NULL ;  NULL ;  NULL       
   3   LONG RANGE B OTHER ATOMS       (A**2):  NULL ;  NULL ;  NULL       
   3                                                                      
   3 ANISOTROPIC THERMAL FACTOR RESTRAINTS.    COUNT   RMS   WEIGHT       
   3   RIGID-BOND RESTRAINTS          (A**2):  2951 ; 0.522 ; 3.000       
   3   SPHERICITY; FREE ATOMS         (A**2):  NULL ;  NULL ;  NULL       
   3   SPHERICITY; BONDED ATOMS       (A**2):  NULL ;  NULL ;  NULL       
   3                                                                      
   3  NCS RESTRAINTS STATISTICS                                           
   3   NUMBER OF DIFFERENT NCS GROUPS : NULL                              
   3                                                                      
   3  TLS DETAILS                                                         
   3   NUMBER OF TLS GROUPS  : 2                                          
   3                                                                      
   3   TLS GROUP : 1                                                      
   3    NUMBER OF COMPONENTS GROUP : 1                                    
   3    COMPONENTS        C SSSEQI   TO  C SSSEQI                         
   3    RESIDUE RANGE :   A    29        A   388                          
   3    ORIGIN FOR THE GROUP (A):   6.0100   3.1380  17.2280              
   3    T TENSOR                                                          
   3      T11:   0.0107 T22:   0.0025                                     
   3      T33:   0.0219 T12:   0.0019                                     
   3      T13:   0.0021 T23:   0.0035                                     
   3    L TENSOR                                                          
   3      L11:   0.8018 L22:   0.6240                                     
   3      L33:   1.3544 L12:  -0.0299                                     
   3      L13:   0.0788 L23:   0.0011                                     
   3    S TENSOR                                                          
   3      S11:  -0.0059 S12:  -0.0127 S13:   0.0067                       
   3      S21:   0.0312 S22:   0.0002 S23:  -0.0159                       
   3      S31:  -0.0035 S32:   0.0433 S33:   0.0057                       
   3                                                                      
   3   TLS GROUP : 2                                                      
   3    NUMBER OF COMPONENTS GROUP : 1                                    
   3    COMPONENTS        C SSSEQI   TO  C SSSEQI                         
   3    RESIDUE RANGE :   A   398        A   398                          
   3    ORIGIN FOR THE GROUP (A):   6.4530  13.1220  17.5810              
   3    T TENSOR                                                          
   3      T11:   0.0556 T22:   0.0315                                     
   3      T33:   0.0550 T12:  -0.0050                                     
   3      T13:   0.0013 T23:   0.0105                                     
   3    L TENSOR                                                          
   3      L11:  52.0068 L22:  32.3143                                     
   3      L33:  17.4833 L12:  26.9082                                     
   3      L13:   2.4847 L23:   1.6903                                     
   3    S TENSOR                                                          
   3      S11:  -0.1453 S12:   0.4875 S13:   1.2187                       
   3      S21:  -0.3149 S22:   0.2219 S23:  -0.0365                       
   3      S31:  -0.3889 S32:   0.5104 S33:  -0.0766                       
   3                                                                      
   3  BULK SOLVENT MODELLING.                                             
   3   METHOD USED : MASK                                                 
   3   PARAMETERS FOR MASK CALCULATION                                    
   3   VDW PROBE RADIUS   : 1.40                                          
   3   ION PROBE RADIUS   : 0.80                                          
   3   SHRINKAGE RADIUS   : 0.80                                          
   3                                                                      
   3  OTHER REFINEMENT REMARKS: HYDROGENS HAVE BEEN ADDED IN THE RIDING   
   3  POSITIONS                                                           
   4                                                                      
   4 3S1Y COMPLIES WITH FORMAT V. 3.30, 13-JUL-11                         
 100                                                                      
 100 THIS ENTRY HAS BEEN PROCESSED BY RCSB ON 19-MAY-11.                  
 100 THE RCSB ID CODE IS RCSB065658.                                      
 200                                                                      
 200 EXPERIMENTAL DETAILS                                                 
 200  EXPERIMENT TYPE                : X-RAY DIFFRACTION                  
 200  DATE OF DATA COLLECTION        : 02-AUG-07                          
 200  TEMPERATURE           (KELVIN) : 100                                
 200  PH                             : 6.5                                
 200  NUMBER OF CRYSTALS USED        : 1                                  
 200                                                                      
 200  SYNCHROTRON              (Y/N) : Y                                  
 200  RADIATION SOURCE               : APS                                
 200  BEAMLINE                       : 17-ID                              
 200  X-RAY GENERATOR MODEL          : NULL                               
 200  MONOCHROMATIC OR LAUE    (M/L) : M                                  
 200  WAVELENGTH OR RANGE        (A) : 1.00                               
 200  MONOCHROMATOR                  : SI (111)                           
 200  OPTICS                         : NULL                               
 200                                                                      
 200  DETECTOR TYPE                  : CCD                                
 200  DETECTOR MANUFACTURER          : ADSC QUANTUM 210                   
 200  INTENSITY-INTEGRATION SOFTWARE : X-GEN                              
 200  DATA SCALING SOFTWARE          : X-GEN                              
 200                                                                      
 200  NUMBER OF UNIQUE REFLECTIONS   : 74960                              
 200  RESOLUTION RANGE HIGH      (A) : 1.350                              
 200  RESOLUTION RANGE LOW       (A) : 99.000                             
 200  REJECTION CRITERIA  (SIGMA(I)) : -3.000                             
 200                                                                      
 200 OVERALL.                                                             
 200  COMPLETENESS FOR RANGE     (%) : 99.9                               
 200  DATA REDUNDANCY                : 8.200                              
 200  R MERGE                    (I) : 0.10100                            
 200  R SYM                      (I) : NULL                               
 200  <I/SIGMA(I)> FOR THE DATA SET  : 8.2000                             
 200                                                                      
 200 IN THE HIGHEST RESOLUTION SHELL.                                     
 200  HIGHEST RESOLUTION SHELL, RANGE HIGH (A) : 1.35                     
 200  HIGHEST RESOLUTION SHELL, RANGE LOW  (A) : 1.43                     
 200  COMPLETENESS FOR SHELL     (%) : 100.0                              
 200  DATA REDUNDANCY IN SHELL       : 8.80                               
 200  R MERGE FOR SHELL          (I) : 0.63200                            
 200  R SYM FOR SHELL            (I) : NULL                               
 200  <I/SIGMA(I)> FOR SHELL         : 1.000                              
 200                                                                      
 200 DIFFRACTION PROTOCOL: SINGLE WAVELENGTH                              
 200 METHOD USED TO DETERMINE THE STRUCTURE: FOURIER SYNTHESIS            
 200 SOFTWARE USED: MERLOT                                                
 200 STARTING MODEL: NULL                                                 
 200                                                                      
 200 REMARK: NULL                                                         
 280                                                                      
 280 CRYSTAL                                                              
 280 SOLVENT CONTENT, VS   (%): 34.76                                     
 280 MATTHEWS COEFFICIENT, VM (ANGSTROMS**3/DA): 1.89                     
 280                                                                      
 280 CRYSTALLIZATION CONDITIONS: 18% PEG 3350, 10% 2-PROPANOL, 100 MM     
 280  IMIDAZOLE, MICROSEEDING, PH 6.5, VAPOR DIFFUSION, HANGING DROP,     
 280  TEMPERATURE 291K                                                    
 290                                                                      
 290 CRYSTALLOGRAPHIC SYMMETRY                                            
 290 SYMMETRY OPERATORS FOR SPACE GROUP: P 21 21 21                       
 290                                                                      
 290      SYMOP   SYMMETRY                                                
 290     NNNMMM   OPERATOR                                                
 290       1555   X,Y,Z                                                   
 290       2555   -X+1/2,-Y,Z+1/2                                         
 290       3555   -X,Y+1/2,-Z+1/2                                         
 290       4555   X+1/2,-Y+1/2,-Z                                         
 290                                                                      
 290     WHERE NNN -> OPERATOR NUMBER                                     
 290           MMM -> TRANSLATION VECTOR                                  
 290                                                                      
 290 CRYSTALLOGRAPHIC SYMMETRY TRANSFORMATIONS                            
 290 THE FOLLOWING TRANSFORMATIONS OPERATE ON THE ATOM/HETATM             
 290 RECORDS IN THIS ENTRY TO PRODUCE CRYSTALLOGRAPHICALLY                
 290 RELATED MOLECULES.                                                   
 290   SMTRY1   1  1.000000  0.000000  0.000000        0.00000            
 290   SMTRY2   1  0.000000  1.000000  0.000000        0.00000            
 290   SMTRY3   1  0.000000  0.000000  1.000000        0.00000            
 290   SMTRY1   2 -1.000000  0.000000  0.000000       21.62650            
 290   SMTRY2   2  0.000000 -1.000000  0.000000        0.00000            
 290   SMTRY3   2  0.000000  0.000000  1.000000       50.83350            
 290   SMTRY1   3 -1.000000  0.000000  0.000000        0.00000            
 290   SMTRY2   3  0.000000  1.000000  0.000000       34.84800            
 290   SMTRY3   3  0.000000  0.000000 -1.000000       50.83350            
 290   SMTRY1   4  1.000000  0.000000  0.000000       21.62650            
 290   SMTRY2   4  0.000000 -1.000000  0.000000       34.84800            
 290   SMTRY3   4  0.000000  0.000000 -1.000000        0.00000            
 290                                                                      
 290 REMARK: NULL                                                         
 300                                                                      
 300 BIOMOLECULE: 1                                                       
 300 SEE REMARK 350 FOR THE AUTHOR PROVIDED AND/OR PROGRAM                
 300 GENERATED ASSEMBLY INFORMATION FOR THE STRUCTURE IN                  
 300 THIS ENTRY. THE REMARK MAY ALSO PROVIDE INFORMATION ON               
 300 BURIED SURFACE AREA.                                                 
 350                                                                      
 350 COORDINATES FOR A COMPLETE MULTIMER REPRESENTING THE KNOWN           
 350 BIOLOGICALLY SIGNIFICANT OLIGOMERIZATION STATE OF THE                
 350 MOLECULE CAN BE GENERATED BY APPLYING BIOMT TRANSFORMATIONS          
 350 GIVEN BELOW.  BOTH NON-CRYSTALLOGRAPHIC AND                          
 350 CRYSTALLOGRAPHIC OPERATIONS ARE GIVEN.                               
 350                                                                      
 350 BIOMOLECULE: 1                                                       
 350 AUTHOR DETERMINED BIOLOGICAL UNIT: MONOMERIC                         
 350 SOFTWARE DETERMINED QUATERNARY STRUCTURE: MONOMERIC                  
 350 SOFTWARE USED: PISA                                                  
 350 APPLY THE FOLLOWING TO CHAINS: A                                     
 350   BIOMT1   1  1.000000  0.000000  0.000000        0.00000            
 350   BIOMT2   1  0.000000  1.000000  0.000000        0.00000            
 350   BIOMT3   1  0.000000  0.000000  1.000000        0.00000            
 465                                                                      
 465 MISSING RESIDUES                                                     
 465 THE FOLLOWING RESIDUES WERE NOT LOCATED IN THE                       
 465 EXPERIMENT. (M=MODEL NUMBER; RES=RESIDUE NAME; C=CHAIN               
 465 IDENTIFIER; SSSEQ=SEQUENCE NUMBER; I=INSERTION CODE.)                
 465                                                                      
 465   M RES C SSSEQI                                                     
 465     GLY A    27                                                      
 465     GLU A    28                                                      
 465     GLN A   390                                                      
 465     GLY A   391                                                      
 465     LYS A   392                                                      
 465     VAL A   393                                                      
 465     PRO A   394                                                      
 465     LEU A   395                                                      
 465     LYS A   396                                                      
 465     ALA A   397                                                      
 470                                                                      
 470 MISSING ATOM                                                         
 470 THE FOLLOWING RESIDUES HAVE MISSING ATOMS (M=MODEL NUMBER;           
 470 RES=RESIDUE NAME; C=CHAIN IDENTIFIER; SSEQ=SEQUENCE NUMBER;          
 470 I=INSERTION CODE):                                                   
 470   M RES CSSEQI  ATOMS                                                
 470     LYS A  47    CD   CE   NZ                                        
 470     ARG A 110    CZ   NH1  NH2                                       
 470     GLN A 164    CD   OE1  NE2                                       
 470     LYS A 232    CD   CE   NZ                                        
 470     ARG A 235    CD   NE   CZ   NH1  NH2                             
 470     ARG A 324    CG   CD   NE   CZ   NH1  NH2                        
 470     GLU A 388    CG   CD   OE1  OE2                                  
 470     GLN A 389    CG   CD   OE1  NE2                                  
 500                                                                      
 500 GEOMETRY AND STEREOCHEMISTRY                                         
 500 SUBTOPIC: CLOSE CONTACTS IN SAME ASYMMETRIC UNIT                     
 500                                                                      
 500 THE FOLLOWING ATOMS ARE IN CLOSE CONTACT.                            
 500                                                                      
 500  ATM1  RES C  SSEQI   ATM2  RES C  SSEQI           DISTANCE          
 500   C17  S1Y A   398     O    HOH A  1301              1.86            
 500   O    HOH A  1128     O    HOH A  1405              1.88            
 500                                                                      
 500 REMARK: NULL                                                         
 500                                                                      
 500 GEOMETRY AND STEREOCHEMISTRY                                         
 500 SUBTOPIC: TORSION ANGLES                                             
 500                                                                      
 500 TORSION ANGLES OUTSIDE THE EXPECTED RAMACHANDRAN REGIONS:            
 500 (M=MODEL NUMBER; RES=RESIDUE NAME; C=CHAIN IDENTIFIER;               
 500 SSEQ=SEQUENCE NUMBER; I=INSERTION CODE).                             
 500                                                                      
 500 STANDARD TABLE:                                                      
 500 FORMAT:(10X,I3,1X,A3,1X,A1,I4,A1,4X,F7.2,3X,F7.2)                    
 500                                                                      
 500 EXPECTED VALUES: GJ KLEYWEGT AND TA JONES (1996). PHI/PSI-           
 500 CHOLOGY: RAMACHANDRAN REVISITED. STRUCTURE 4, 1395 - 1400            
 500                                                                      
 500  M RES CSSEQI        PSI       PHI                                   
 500    GLN A 204      -53.66   -123.73                                   
 500    TYR A 249       27.49   -160.22                                   
 500    ASN A 368       39.61    -99.75                                   
 500                                                                      
 500 REMARK: NULL                                                         
 525                                                                      
 525 SOLVENT                                                              
 525                                                                      
 525 THE SOLVENT MOLECULES HAVE CHAIN IDENTIFIERS THAT                    
 525 INDICATE THE POLYMER CHAIN WITH WHICH THEY ARE MOST                  
 525 CLOSELY ASSOCIATED. THE REMARK LISTS ALL THE SOLVENT                 
 525 MOLECULES WHICH ARE MORE THAN 5A AWAY FROM THE                       
 525 NEAREST POLYMER CHAIN (M = MODEL NUMBER;                             
 525 RES=RESIDUE NAME; C=CHAIN IDENTIFIER; SSEQ=SEQUENCE                  
 525 NUMBER; I=INSERTION CODE):                                           
 525                                                                      
 525  M RES CSSEQI                                                        
 525    HOH A1237        DISTANCE =  5.11 ANGSTROMS                       
 600                                                                      
 600 HETEROGEN                                                            
 600 THE STARTING MATERIAL IS A CLOSED RING BETA-LACTAMASE INHIBITOR,     
 600 THAT REACTS WITH SER90 TO BECOME THE OPEN RING COMPOUND, S1Y         
 800                                                                      
 800 SITE                                                                 
 800 SITE_IDENTIFIER: AC1                                                 
 800 EVIDENCE_CODE: SOFTWARE                                              
 800 SITE_DESCRIPTION: BINDING SITE FOR RESIDUE S1Y A 398                 
 800                                                                      
 800 SITE_IDENTIFIER: AC2                                                 
 800 EVIDENCE_CODE: SOFTWARE                                              
 800 SITE_DESCRIPTION: BINDING SITE FOR RESIDUE CL A 399                  
 800                                                                      
 800 SITE_IDENTIFIER: AC3                                                 
 800 EVIDENCE_CODE: SOFTWARE                                              
 800 SITE_DESCRIPTION: BINDING SITE FOR RESIDUE IPA A 400                 
 800                                                                      
 800 SITE_IDENTIFIER: AC4                                                 
 800 EVIDENCE_CODE: SOFTWARE                                              
 800 SITE_DESCRIPTION: BINDING SITE FOR RESIDUE IPA A 401                 
 900                                                                      
 900 RELATED ENTRIES                                                      
 900 RELATED ID: 2WZX   RELATED DB: PDB                                   
 900 RELATED ID: 2WZZ   RELATED DB: PDB                                   
 900 RELATED ID: 3S22   RELATED DB: PDB                                   

>  <DBREF>
 3S1Y A   27   397  UNP    P24735   AMPC_PSEAE      27    397             

>  <SEQADV>
 3S1Y ALA A  397  UNP  P24735    ARG   397 ENGINEERED MUTATION            

>  <SEQRES>
   1 A  371  GLY GLU ALA PRO ALA ASP ARG LEU LYS ALA LEU VAL ASP          
   2 A  371  ALA ALA VAL GLN PRO VAL MET LYS ALA ASN ASP ILE PRO          
   3 A  371  GLY LEU ALA VAL ALA ILE SER LEU LYS GLY GLU PRO HIS          
   4 A  371  TYR PHE SER TYR GLY LEU ALA SER LYS GLU ASP GLY ARG          
   5 A  371  ARG VAL THR PRO GLU THR LEU PHE GLU ILE GLY SER VAL          
   6 A  371  SER LYS THR PHE THR ALA THR LEU ALA GLY TYR ALA LEU          
   7 A  371  THR GLN ASP LYS MET ARG LEU ASP ASP ARG ALA SER GLN          
   8 A  371  HIS TRP PRO ALA LEU GLN GLY SER ARG PHE ASP GLY ILE          
   9 A  371  SER LEU LEU ASP LEU ALA THR TYR THR ALA GLY GLY LEU          
  10 A  371  PRO LEU GLN PHE PRO ASP SER VAL GLN LYS ASP GLN ALA          
  11 A  371  GLN ILE ARG ASP TYR TYR ARG GLN TRP GLN PRO THR TYR          
  12 A  371  ALA PRO GLY SER GLN ARG LEU TYR SER ASN PRO SER ILE          
  13 A  371  GLY LEU PHE GLY TYR LEU ALA ALA ARG SER LEU GLY GLN          
  14 A  371  PRO PHE GLU ARG LEU MET GLU GLN GLN VAL PHE PRO ALA          
  15 A  371  LEU GLY LEU GLU GLN THR HIS LEU ASP VAL PRO GLU ALA          
  16 A  371  ALA LEU ALA GLN TYR ALA GLN GLY TYR GLY LYS ASP ASP          
  17 A  371  ARG PRO LEU ARG VAL GLY PRO GLY PRO LEU ASP ALA GLU          
  18 A  371  GLY TYR GLY VAL LYS THR SER ALA ALA ASP LEU LEU ARG          
  19 A  371  PHE VAL ASP ALA ASN LEU HIS PRO GLU ARG LEU ASP ARG          
  20 A  371  PRO TRP ALA GLN ALA LEU ASP ALA THR HIS ARG GLY TYR          
  21 A  371  TYR LYS VAL GLY ASP MET THR GLN GLY LEU GLY TRP GLU          
  22 A  371  ALA TYR ASP TRP PRO ILE SER LEU LYS ARG LEU GLN ALA          
  23 A  371  GLY ASN SER THR PRO MET ALA LEU GLN PRO HIS ARG ILE          
  24 A  371  ALA ARG LEU PRO ALA PRO GLN ALA LEU GLU GLY GLN ARG          
  25 A  371  LEU LEU ASN LYS THR GLY SER THR ASN GLY PHE GLY ALA          
  26 A  371  TYR VAL ALA PHE VAL PRO GLY ARG ASP LEU GLY LEU VAL          
  27 A  371  ILE LEU ALA ASN ARG ASN TYR PRO ASN ALA GLU ARG VAL          
  28 A  371  LYS ILE ALA TYR ALA ILE LEU SER GLY LEU GLU GLN GLN          
  29 A  371  GLY LYS VAL PRO LEU LYS ALA                                  

>  <HET>
 S1Y  A 398      25                                                       
  CL  A 399       1                                                       
 IPA  A 400       4                                                       
 IPA  A 401       4                                                       

>  <HETNAM>
     S1Y [(2S,3R)-1-{[(4S)-1-(2-AMINOETHYL)AZEPAN-4-                      
   2 S1Y  YL]CARBAMOYL}-2-FORMYLPYRROLIDIN-3-YL]SULFAMIC ACID             
      CL CHLORIDE ION                                                     
     IPA ISOPROPYL ALCOHOL                                                

>  <HETSYN>
     IPA 2-PROPANOL                                                       

>  <FORMUL>
   2  S1Y    C14 H27 N5 O5 S                                              
   3   CL    CL 1-                                                        
   4  IPA    2(C3 H8 O)                                                   
   6  HOH   *425(H2 O)                                                    

>  <HELIX>
   1   1 ALA A   29  ASN A   49  1                                  21    
   2   2 VAL A   91  GLN A  106  1                                  16    
   3   3 ARG A  114  GLN A  123  5                                  10    
   4   4 SER A  125  ILE A  130  5                                   6    
   5   5 SER A  131  THR A  137  1                                   7    
   6   6 ASP A  154  TRP A  165  1                                  12    
   7   7 SER A  178  LEU A  193  1                                  16    
   8   8 PRO A  196  GLN A  204  1                                   9    
   9   9 GLN A  204  LEU A  209  1                                   6    
  10  10 PRO A  219  TYR A  226  5                                   8    
  11  11 GLY A  231  ARG A  235  5                                   5    
  12  12 LEU A  244  GLY A  250  1                                   7    
  13  13 ALA A  255  HIS A  267  1                                  13    
  14  14 PRO A  268  LEU A  271  5                                   4    
  15  15 ASP A  272  THR A  282  1                                  11    
  16  16 SER A  306  ASN A  314  1                                   9    
  17  17 SER A  315  GLN A  321  1                                   7    
  18  18 PRO A  357  ASP A  360  5                                   4    
  19  19 PRO A  372  GLN A  389  1                                  18    

>  <SHEET>
   1   A 9 GLU A  63  GLY A  70  0                                        
   2   A 9 GLY A  53  LEU A  60 -1  N  VAL A  56   O  PHE A  67           
   3   A 9 LEU A 361  ALA A 367 -1  O  GLY A 362   N  SER A  59           
   4   A 9 GLY A 350  VAL A 356 -1  N  VAL A 356   O  LEU A 361           
   5   A 9 ARG A 338  SER A 345 -1  N  GLY A 344   O  ALA A 351           
   6   A 9 GLU A 299  ASP A 302 -1  N  GLU A 299   O  ASN A 341           
   7   A 9 MET A 292  GLN A 294 -1  N  THR A 293   O  ALA A 300           
   8   A 9 ARG A 284  VAL A 289 -1  N  TYR A 286   O  GLN A 294           
   9   A 9 ALA A 326  ALA A 333 -1  O  GLN A 332   N  GLY A 285           
   1   B 3 LEU A  85  GLU A  87  0                                        
   2   B 3 LYS A 252  SER A 254 -1  O  THR A 253   N  PHE A  86           
   3   B 3 THR A 214  HIS A 215 -1  N  HIS A 215   O  LYS A 252           
   1   C 2 GLN A 174  ARG A 175  0                                        
   2   C 2 HIS A 323  ARG A 324 -1  O  HIS A 323   N  ARG A 175           

>  <LINK>
       OG  SER A  90                 C11 S1Y A 398     1555   1555  1.25  

>  <CISPEP>
   1 TRP A  303    PRO A  304          0         4.49                     

>  <SITE>
   1 AC1 25 GLY A  89  SER A  90  GLN A 146  TYR A 177                    
   2 AC1 25 ASN A 179  VAL A 239  GLY A 240  PRO A 241                    
   3 AC1 25 GLY A 242  TYR A 249  ALA A 319  LYS A 342                    
   4 AC1 25 THR A 343  GLY A 344  SER A 345  THR A 346                    
   5 AC1 25 ASN A 373  IPA A 400  HOH A1020  HOH A1077                    
   6 AC1 25 HOH A1113  HOH A1174  HOH A1219  HOH A1301                    
   7 AC1 25 HOH A1373                                                     
   1 AC2  4 GLN A 146  PHE A 147  ASN A 179  HOH A1032                    
   1 AC3  4 THR A 316  ALA A 319  S1Y A 398  HOH A1091                    
   1 AC4  6 GLU A 269  ALA A 276  ASP A 280  GLN A 321                    
   2 AC4  6 PRO A 322  HOH A1300                                          

>  <ORIGX1>
      1.000000  0.000000  0.000000        0.00000                         

>  <ORIGX2>
      0.000000  1.000000  0.000000        0.00000                         

>  <ORIGX3>
      0.000000  0.000000  1.000000        0.00000                         

>  <SCALE1>
      0.023120  0.000000  0.000000        0.00000                         

>  <SCALE2>
      0.000000  0.014348  0.000000        0.00000                         

>  <SCALE3>
      0.000000  0.000000  0.009836        0.00000                         

>  <ANISOU>
  461  N   SER A  90      984   1038    963      6     27     15       N  
  462  CA  SER A  90     1059   1130    994     40     21     35       C  
  463  C   SER A  90     1074   1187   1006     28     -3    -10       C  
  464  O   SER A  90     1115   1166   1007     29     21     14       O  
  465  CB  SER A  90     1024   1210   1038     61     80     47       C  
  466  OG  SER A  90     1249   1254   1039     -9     18    101       O  
 2839  S1  S1Y A 398     1314   1271    986     42    -83     75       S  
 2840  O2  S1Y A 398     1451   1393   1047    -62   -109     51       O  
 2841  O3  S1Y A 398     1358   1281    983     99    -93    -36       O  
 2842  O4  S1Y A 398     1186   1201   1211     -3    -45    -19       O  
 2843  N5  S1Y A 398     1269   1316   1262     65    105    -71       N  
 2844  C6  S1Y A 398     1215   1266   1112     -3    -39     82       C  
 2845  C7  S1Y A 398     1329   1206   1161    -39     23     87       C  
 2846  C8  S1Y A 398     1267   1335   1196    -62    -45     66       C  
 2847  N9  S1Y A 398     1198   1258   1210    -38     74     71       N  
 2848  C10 S1Y A 398     1219   1180   1291     -2     69     82       C  
 2849  C11 S1Y A 398      946   1057    990    -39     -2    162       C  
 2850  O12 S1Y A 398      812    847    938    -23   -110    305       O  
 2851  C13 S1Y A 398     1191   1372   1146     11    -42    -11       C  
 2852  O14 S1Y A 398     1169   1322   1250    -78   -107     56       O  
 2853  N15 S1Y A 398     1261   1363   1122     34    -64      4       N  
 2854  C16 S1Y A 398     1248   1362   1286      7    -29      0       C  
 2855  C17 S1Y A 398     1365   1410   1279     20    -47      5       C  
 2856  C18 S1Y A 398     1354   1420   1296     27    -32     -4       C  
 2857  C19 S1Y A 398     1372   1384   1345     54    -64    -10       C  
 2858  N20 S1Y A 398     1334   1349   1332     24    -38      8       N  
 2859  C21 S1Y A 398     1331   1357   1333      5    -31     -6       C  
 2860  C22 S1Y A 398     1349   1347   1296      2     -7    -14       C  
 2861  N23 S1Y A 398     1368   1366   1253     15    -22    -24       N  
 2862  C24 S1Y A 398     1307   1405   1334     14    -65      9       C  
 2863  C25 S1Y A 398     1311   1373   1280     29    -60    -26       C  

>  <MASTER>
      373    0    4   19   14    0   11    6 3227    1   34   29          

$$$$
