start_structures/Ligand_Substrate/Ligand_Complex_Stripped/SA2_2H5S.pdb
 OpenBabel08222315203D

 30 29  0  0  1  0  0  0  0  0999 V2000
   33.5130   60.2720    8.6480 N   0  0  0  0  0  0  0  0  0  0  0  0
   33.0640   59.1020    7.9010 C   0  0  2  0  0  0  0  0  0  0  0  0
   33.5460   57.7570    8.4210 C   0  0  0  0  0  0  0  0  0  0  0  0
   33.0750   56.7140    7.9530 O   0  0  0  0  0  0  0  0  0  0  0  0
   33.4200   59.2490    6.4220 C   0  0  0  0  0  0  0  0  0  0  0  0
   32.7360   60.3690    5.8560 O   0  0  0  0  0  0  0  0  0  0  0  0
   35.0960   59.4380    3.8890 O   0  0  0  0  0  0  0  0  0  0  0  0
   35.7680   60.3160    3.3060 C   0  0  0  0  0  0  0  0  0  0  0  0
   36.9930   60.5100    3.4400 O   0  0  0  0  0  0  0  0  0  0  0  0
   35.0180   61.2410    2.3460 C   0  0  0  0  0  0  0  0  0  0  0  0
   35.5450   61.0890    0.9170 C   0  0  0  0  0  0  0  0  0  0  0  0
   34.8020   62.0020   -0.0600 C   0  0  0  0  0  0  0  0  0  0  0  0
   34.8630   63.4310    0.2970 C   0  0  0  0  0  0  0  0  0  0  0  0
   35.8690   64.0930    0.0440 O   0  0  0  0  0  0  0  0  0  0  0  0
   33.7900   63.9780    0.9310 O   0  0  0  0  0  0  0  0  0  0  0  0
   33.9880   65.3590    1.2700 C   0  0  0  0  0  0  0  0  0  0  0  0
   32.7910   65.8970    2.0390 C   0  0  1  0  0  0  0  0  0  0  0  0
   33.2130   67.5850    2.6100 S   0  0  0  0  0  0  0  0  0  0  0  0
   34.3170   67.4960    3.6220 O   0  0  0  0  0  0  0  0  0  0  0  0
   33.6910   68.3920    1.4380 O   0  0  0  0  0  0  0  0  0  0  0  0
   31.5900   65.9550    1.0910 C   0  0  0  0  0  0  0  0  0  0  0  0
   32.5170   64.9730    3.2330 C   0  0  2  0  0  0  0  0  0  0  0  0
   31.3200   65.4640    4.0540 C   0  0  0  0  0  0  0  0  0  0  0  0
   31.4980   66.4620    4.7860 O   0  0  0  0  0  0  0  0  0  0  0  0
   30.2500   64.8290    3.9340 O   0  0  0  0  0  0  0  0  0  0  0  0
   33.7160   64.9310    4.0840 N   0  0  0  0  0  0  0  0  0  0  0  0
   33.7800   63.9440    4.9770 C   0  0  0  0  0  0  0  0  0  0  0  0
   32.9810   62.6450    4.9360 C   0  0  0  0  0  0  0  0  0  0  0  0
   33.3870   61.6100    5.7710 C   0  0  0  0  0  0  0  0  0  0  0  0
   34.3710   61.7950    6.4870 O   0  0  0  0  0  0  0  0  0  0  0  0
  2  3  1  0  0  0  0
  2  1  1  1  0  0  0
  4  3  2  0  0  0  0
  5  2  1  0  0  0  0
  6 29  1  0  0  0  0
  6  5  1  0  0  0  0
  7  8  2  0  0  0  0
  8  9  1  0  0  0  0
  8 10  1  0  0  0  0
 10 11  1  0  0  0  0
 11 12  1  0  0  0  0
 12 13  1  0  0  0  0
 13 14  2  0  0  0  0
 13 15  1  0  0  0  0
 15 16  1  0  0  0  0
 16 17  1  0  0  0  0
 17 18  1  0  0  0  0
 17 21  1  6  0  0  0
 17 22  1  0  0  0  0
 18 19  1  0  0  0  0
 18 20  1  0  0  0  0
 22 23  1  1  0  0  0
 22 26  1  0  0  0  0
 23 24  2  0  0  0  0
 23 25  1  0  0  0  0
 26 27  1  0  0  0  0
 27 28  2  0  0  0  0
 28 29  1  0  0  0  0
 29 30  2  0  0  0  0
M  END
>  <HEADER>
    HYDROLASE                               27-MAY-06   2H5S              

>  <TITLE>
    SA2-13 PENAM SULFONE COMPLEXED TO WT SHV-1 BETA-LACTAMASE             

>  <COMPND>
    MOL_ID: 1;                                                            
   2 MOLECULE: SHV-1 BETA-LACTAMASE;                                      
   3 CHAIN: A;                                                            
   4 SYNONYM: EXTENDED-SPECTRUM BETA-LACTAMASE SHV-11, SHV TYPE EXTENDED  
   5 SPECTRUM BETA-LACTAMASE, BLA-SHV TYPE 1;                             
   6 EC: 3.5.2.6;                                                         
   7 ENGINEERED: YES                                                      

>  <SOURCE>
    MOL_ID: 1;                                                            
   2 ORGANISM_SCIENTIFIC: KLEBSIELLA PNEUMONIAE;                          
   3 ORGANISM_TAXID: 573;                                                 
   4 EXPRESSION_SYSTEM: ESCHERICHIA COLI STR. K-12 SUBSTR. DH10B;         
   5 EXPRESSION_SYSTEM_TAXID: 316385;                                     
   6 EXPRESSION_SYSTEM_STRAIN: DH10B;                                     
   7 EXPRESSION_SYSTEM_VECTOR_TYPE: PLASMID;                              
   8 EXPRESSION_SYSTEM_PLASMID: PBC SK(-)                                 

>  <KEYWDS>
    BETA-LACTAMASE INHIBITOR, DRUG DESIGN, HYDROLASE                      

>  <EXPDTA>
    X-RAY DIFFRACTION                                                     

>  <AUTHOR>
    F.VAN DEN AKKER,P.S.PADAYATTI                                         

>  <REVDAT>
   3   18-OCT-17 2H5S    1       REMARK                                   
   2   24-FEB-09 2H5S    1       VERSN                                    
   1   17-OCT-06 2H5S    0                                                

>  <JRNL>
      AUTH   P.S.PADAYATTI,A.SHERI,M.A.TOTIR,M.S.HELFAND,M.P.CAREY,       
      AUTH 2 V.E.ANDERSON,P.R.CAREY,C.R.BETHEL,R.A.BONOMO,J.D.BUYNAK,     
      AUTH 3 F.VAN DEN AKKER                                              
      TITL   RATIONAL DESIGN OF A BETA-LACTAMASE INHIBITOR ACHIEVED VIA   
      TITL 2 STABILIZATION OF THE TRANS-ENAMINE INTERMEDIATE: 1.28 A      
      TITL 3 CRYSTAL STRUCTURE OF WT SHV-1 COMPLEX WITH A PENAM SULFONE.  
      REF    J.AM.CHEM.SOC.                V. 128 13235 2006              
      REFN                   ISSN 0002-7863                               
      PMID   17017804                                                     
      DOI    10.1021/JA063715W                                            

>  <REMARK>
   2                                                                      
   2 RESOLUTION.    1.28 ANGSTROMS.                                       
   3                                                                      
   3 REFINEMENT.                                                          
   3   PROGRAM     : CNS 1.1                                              
   3   AUTHORS     : BRUNGER,ADAMS,CLORE,DELANO,GROS,GROSSE-              
   3               : KUNSTLEVE,JIANG,KUSZEWSKI,NILGES,PANNU,              
   3               : READ,RICE,SIMONSON,WARREN                            
   3                                                                      
   3  REFINEMENT TARGET : ENGH & HUBER                                    
   3                                                                      
   3  DATA USED IN REFINEMENT.                                            
   3   RESOLUTION RANGE HIGH (ANGSTROMS) : 1.28                           
   3   RESOLUTION RANGE LOW  (ANGSTROMS) : 23.22                          
   3   DATA CUTOFF            (SIGMA(F)) : 0.000                          
   3   DATA CUTOFF HIGH         (ABS(F)) : 1288714.770                    
   3   DATA CUTOFF LOW          (ABS(F)) : 0.0000                         
   3   COMPLETENESS (WORKING+TEST)   (%) : 97.6                           
   3   NUMBER OF REFLECTIONS             : 59293                          
   3                                                                      
   3  FIT TO DATA USED IN REFINEMENT.                                     
   3   CROSS-VALIDATION METHOD          : THROUGHOUT                      
   3   FREE R VALUE TEST SET SELECTION  : RANDOM                          
   3   R VALUE            (WORKING SET) : 0.154                           
   3   FREE R VALUE                     : 0.167                           
   3   FREE R VALUE TEST SET SIZE   (%) : 10.100                          
   3   FREE R VALUE TEST SET COUNT      : 6018                            
   3   ESTIMATED ERROR OF FREE R VALUE  : 0.002                           
   3                                                                      
   3  FIT IN THE HIGHEST RESOLUTION BIN.                                  
   3   TOTAL NUMBER OF BINS USED           : 6                            
   3   BIN RESOLUTION RANGE HIGH       (A) : 1.28                         
   3   BIN RESOLUTION RANGE LOW        (A) : 1.36                         
   3   BIN COMPLETENESS (WORKING+TEST) (%) : 95.90                        
   3   REFLECTIONS IN BIN    (WORKING SET) : 8606                         
   3   BIN R VALUE           (WORKING SET) : 0.1700                       
   3   BIN FREE R VALUE                    : 0.1950                       
   3   BIN FREE R VALUE TEST SET SIZE  (%) : 9.90                         
   3   BIN FREE R VALUE TEST SET COUNT     : 945                          
   3   ESTIMATED ERROR OF BIN FREE R VALUE : 0.006                        
   3                                                                      
   3  NUMBER OF NON-HYDROGEN ATOMS USED IN REFINEMENT.                    
   3   PROTEIN ATOMS            : 2024                                    
   3   NUCLEIC ACID ATOMS       : 0                                       
   3   HETEROGEN ATOMS          : 68                                      
   3   SOLVENT ATOMS            : 344                                     
   3                                                                      
   3  B VALUES.                                                           
   3   FROM WILSON PLOT           (A**2) : 8.10                           
   3   MEAN B VALUE      (OVERALL, A**2) : 10.20                          
   3   OVERALL ANISOTROPIC B VALUE.                                       
   3    B11 (A**2) : 0.72000                                              
   3    B22 (A**2) : -1.18000                                             
   3    B33 (A**2) : 0.46000                                              
   3    B12 (A**2) : 0.00000                                              
   3    B13 (A**2) : 0.00000                                              
   3    B23 (A**2) : 0.00000                                              
   3                                                                      
   3  ESTIMATED COORDINATE ERROR.                                         
   3   ESD FROM LUZZATI PLOT        (A) : 0.11                            
   3   ESD FROM SIGMAA              (A) : 0.04                            
   3   LOW RESOLUTION CUTOFF        (A) : 5.00                            
   3                                                                      
   3  CROSS-VALIDATED ESTIMATED COORDINATE ERROR.                         
   3   ESD FROM C-V LUZZATI PLOT    (A) : 0.12                            
   3   ESD FROM C-V SIGMAA          (A) : 0.06                            
   3                                                                      
   3  RMS DEVIATIONS FROM IDEAL VALUES.                                   
   3   BOND LENGTHS                 (A) : 0.008                           
   3   BOND ANGLES            (DEGREES) : 1.500                           
   3   DIHEDRAL ANGLES        (DEGREES) : 21.50                           
   3   IMPROPER ANGLES        (DEGREES) : 1.070                           
   3                                                                      
   3  ISOTROPIC THERMAL MODEL : RESTRAINED                                
   3                                                                      
   3  ISOTROPIC THERMAL FACTOR RESTRAINTS.    RMS    SIGMA                
   3   MAIN-CHAIN BOND              (A**2) : NULL  ; NULL                 
   3   MAIN-CHAIN ANGLE             (A**2) : NULL  ; NULL                 
   3   SIDE-CHAIN BOND              (A**2) : NULL  ; NULL                 
   3   SIDE-CHAIN ANGLE             (A**2) : NULL  ; NULL                 
   3                                                                      
   3  BULK SOLVENT MODELING.                                              
   3   METHOD USED : FLAT MODEL                                           
   3   KSOL        : 0.36                                                 
   3   BSOL        : 52.20                                                
   3                                                                      
   3  NCS MODEL : NULL                                                    
   3                                                                      
   3  NCS RESTRAINTS.                         RMS   SIGMA/WEIGHT          
   3   GROUP  1  POSITIONAL            (A) : NULL  ; NULL                 
   3   GROUP  1  B-FACTOR           (A**2) : NULL  ; NULL                 
   3                                                                      
   3  PARAMETER FILE  1  : PROTEIN_REP.PARAM                              
   3  PARAMETER FILE  2  : WATER_REP.PARAM                                
   3  PARAMETER FILE  3  : SA_PAR3.PAR                                    
   3  PARAMETER FILE  4  : NEW_CYMAL.PAR                                  
   3  PARAMETER FILE  5  : CIS167NEW.PAR                                  
   3  PARAMETER FILE  6  : NULL                                           
   3  TOPOLOGY FILE  1   : PROTEIN.TOP                                    
   3  TOPOLOGY FILE  2   : WATER.TOP                                      
   3  TOPOLOGY FILE  3   : NEW_LIGANDS5.TOP                               
   3  TOPOLOGY FILE  4   : ION.TOP                                        
   3  TOPOLOGY FILE  5   : NULL                                           
   3  TOPOLOGY FILE  6   : NULL                                           
   3                                                                      
   3  OTHER REFINEMENT REMARKS: NULL                                      
   4                                                                      
   4 2H5S COMPLIES WITH FORMAT V. 3.30, 13-JUL-11                         
 100                                                                      
 100 THIS ENTRY HAS BEEN PROCESSED BY RCSB ON 09-JUN-06.                  
 100 THE DEPOSITION ID IS D_1000037964.                                   
 200                                                                      
 200 EXPERIMENTAL DETAILS                                                 
 200  EXPERIMENT TYPE                : X-RAY DIFFRACTION                  
 200  DATE OF DATA COLLECTION        : 17-JUL-05                          
 200  TEMPERATURE           (KELVIN) : 100                                
 200  PH                             : 7                                  
 200  NUMBER OF CRYSTALS USED        : 1                                  
 200                                                                      
 200  SYNCHROTRON              (Y/N) : Y                                  
 200  RADIATION SOURCE               : APS                                
 200  BEAMLINE                       : 19-ID                              
 200  X-RAY GENERATOR MODEL          : NULL                               
 200  MONOCHROMATIC OR LAUE    (M/L) : M                                  
 200  WAVELENGTH OR RANGE        (A) : 1.0332                             
 200  MONOCHROMATOR                  : NULL                               
 200  OPTICS                         : NULL                               
 200                                                                      
 200  DETECTOR TYPE                  : CCD                                
 200  DETECTOR MANUFACTURER          : CCD                                
 200  INTENSITY-INTEGRATION SOFTWARE : SOFTWARE AT 19ID                   
 200  DATA SCALING SOFTWARE          : HKL-2000                           
 200                                                                      
 200  NUMBER OF UNIQUE REFLECTIONS   : 59323                              
 200  RESOLUTION RANGE HIGH      (A) : 1.280                              
 200  RESOLUTION RANGE LOW       (A) : 23.220                             
 200  REJECTION CRITERIA  (SIGMA(I)) : 0.000                              
 200                                                                      
 200 OVERALL.                                                             
 200  COMPLETENESS FOR RANGE     (%) : 97.7                               
 200  DATA REDUNDANCY                : 5.900                              
 200  R MERGE                    (I) : NULL                               
 200  R SYM                      (I) : 0.03600                            
 200  <I/SIGMA(I)> FOR THE DATA SET  : 41.5000                            
 200                                                                      
 200 IN THE HIGHEST RESOLUTION SHELL.                                     
 200  HIGHEST RESOLUTION SHELL, RANGE HIGH (A) : 1.28                     
 200  HIGHEST RESOLUTION SHELL, RANGE LOW  (A) : 1.33                     
 200  COMPLETENESS FOR SHELL     (%) : 96.5                               
 200  DATA REDUNDANCY IN SHELL       : NULL                               
 200  R MERGE FOR SHELL          (I) : NULL                               
 200  R SYM FOR SHELL            (I) : 0.16600                            
 200  <I/SIGMA(I)> FOR SHELL         : NULL                               
 200                                                                      
 200 DIFFRACTION PROTOCOL: SINGLE WAVELENGTH                              
 200 METHOD USED TO DETERMINE THE STRUCTURE: MOLECULAR REPLACEMENT        
 200 SOFTWARE USED: CNS                                                   
 200 STARTING MODEL: PDB ENTRY 1RCJ                                       
 200                                                                      
 200 REMARK: NULL                                                         
 280                                                                      
 280 CRYSTAL                                                              
 280 SOLVENT CONTENT, VS   (%): 38.73                                     
 280 MATTHEWS COEFFICIENT, VM (ANGSTROMS**3/DA): 2.01                     
 280                                                                      
 280 CRYSTALLIZATION CONDITIONS: 30%PEG6000, 0.1M HEPES, 0.56 MM CYMAL    
 280  -6, PH 7, VAPOR DIFFUSION, SITTING DROP, TEMPERATURE 298K           
 290                                                                      
 290 CRYSTALLOGRAPHIC SYMMETRY                                            
 290 SYMMETRY OPERATORS FOR SPACE GROUP: P 21 21 21                       
 290                                                                      
 290      SYMOP   SYMMETRY                                                
 290     NNNMMM   OPERATOR                                                
 290       1555   X,Y,Z                                                   
 290       2555   -X+1/2,-Y,Z+1/2                                         
 290       3555   -X,Y+1/2,-Z+1/2                                         
 290       4555   X+1/2,-Y+1/2,-Z                                         
 290                                                                      
 290     WHERE NNN -> OPERATOR NUMBER                                     
 290           MMM -> TRANSLATION VECTOR                                  
 290                                                                      
 290 CRYSTALLOGRAPHIC SYMMETRY TRANSFORMATIONS                            
 290 THE FOLLOWING TRANSFORMATIONS OPERATE ON THE ATOM/HETATM             
 290 RECORDS IN THIS ENTRY TO PRODUCE CRYSTALLOGRAPHICALLY                
 290 RELATED MOLECULES.                                                   
 290   SMTRY1   1  1.000000  0.000000  0.000000        0.00000            
 290   SMTRY2   1  0.000000  1.000000  0.000000        0.00000            
 290   SMTRY3   1  0.000000  0.000000  1.000000        0.00000            
 290   SMTRY1   2 -1.000000  0.000000  0.000000       24.90500            
 290   SMTRY2   2  0.000000 -1.000000  0.000000        0.00000            
 290   SMTRY3   2  0.000000  0.000000  1.000000       42.21500            
 290   SMTRY1   3 -1.000000  0.000000  0.000000        0.00000            
 290   SMTRY2   3  0.000000  1.000000  0.000000       27.61000            
 290   SMTRY3   3  0.000000  0.000000 -1.000000       42.21500            
 290   SMTRY1   4  1.000000  0.000000  0.000000       24.90500            
 290   SMTRY2   4  0.000000 -1.000000  0.000000       27.61000            
 290   SMTRY3   4  0.000000  0.000000 -1.000000        0.00000            
 290                                                                      
 290 REMARK: NULL                                                         
 300                                                                      
 300 BIOMOLECULE: 1                                                       
 300 SEE REMARK 350 FOR THE AUTHOR PROVIDED AND/OR PROGRAM                
 300 GENERATED ASSEMBLY INFORMATION FOR THE STRUCTURE IN                  
 300 THIS ENTRY. THE REMARK MAY ALSO PROVIDE INFORMATION ON               
 300 BURIED SURFACE AREA.                                                 
 300 REMARK: PROTEIN IS A MONOMER                                         
 350                                                                      
 350 COORDINATES FOR A COMPLETE MULTIMER REPRESENTING THE KNOWN           
 350 BIOLOGICALLY SIGNIFICANT OLIGOMERIZATION STATE OF THE                
 350 MOLECULE CAN BE GENERATED BY APPLYING BIOMT TRANSFORMATIONS          
 350 GIVEN BELOW.  BOTH NON-CRYSTALLOGRAPHIC AND                          
 350 CRYSTALLOGRAPHIC OPERATIONS ARE GIVEN.                               
 350                                                                      
 350 BIOMOLECULE: 1                                                       
 350 AUTHOR DETERMINED BIOLOGICAL UNIT: MONOMERIC                         
 350 SOFTWARE DETERMINED QUATERNARY STRUCTURE: MONOMERIC                  
 350 SOFTWARE USED: PISA                                                  
 350 APPLY THE FOLLOWING TO CHAINS: A                                     
 350   BIOMT1   1  1.000000  0.000000  0.000000        0.00000            
 350   BIOMT2   1  0.000000  1.000000  0.000000        0.00000            
 350   BIOMT3   1  0.000000  0.000000  1.000000        0.00000            
 500                                                                      
 500 GEOMETRY AND STEREOCHEMISTRY                                         
 500 SUBTOPIC: TORSION ANGLES                                             
 500                                                                      
 500 TORSION ANGLES OUTSIDE THE EXPECTED RAMACHANDRAN REGIONS:            
 500 (M=MODEL NUMBER; RES=RESIDUE NAME; C=CHAIN IDENTIFIER;               
 500 SSEQ=SEQUENCE NUMBER; I=INSERTION CODE).                             
 500                                                                      
 500 STANDARD TABLE:                                                      
 500 FORMAT:(10X,I3,1X,A3,1X,A1,I4,A1,4X,F7.2,3X,F7.2)                    
 500                                                                      
 500 EXPECTED VALUES: GJ KLEYWEGT AND TA JONES (1996). PHI/PSI-           
 500 CHOLOGY: RAMACHANDRAN REVISITED. STRUCTURE 4, 1395 - 1400            
 500                                                                      
 500  M RES CSSEQI        PSI       PHI                                   
 500    MET A  69     -145.29     55.03                                   
 500    TYR A 105       88.70     70.75                                   
 500                                                                      
 500 REMARK: NULL                                                         
 610                                                                      
 610 MISSING HETEROATOM                                                   
 610 THE FOLLOWING RESIDUES HAVE MISSING ATOMS (M=MODEL NUMBER;           
 610 RES=RESIDUE NAME; C=CHAIN IDENTIFIER; SSEQ=SEQUENCE NUMBER;          
 610 I=INSERTION CODE):                                                   
 610   M RES C SSEQI                                                      
 610     MA4 A  401                                                       
 800                                                                      
 800 SITE                                                                 
 800 SITE_IDENTIFIER: AC1                                                 
 800 EVIDENCE_CODE: SOFTWARE                                              
 800 SITE_DESCRIPTION: BINDING SITE FOR RESIDUE SA2 A 611                 
 800                                                                      
 800 SITE_IDENTIFIER: AC2                                                 
 800 EVIDENCE_CODE: SOFTWARE                                              
 800 SITE_DESCRIPTION: BINDING SITE FOR RESIDUE MA4 A 400                 
 800                                                                      
 800 SITE_IDENTIFIER: AC3                                                 
 800 EVIDENCE_CODE: SOFTWARE                                              
 800 SITE_DESCRIPTION: BINDING SITE FOR RESIDUE MA4 A 401                 
 900                                                                      
 900 RELATED ENTRIES                                                      
 900 RELATED ID: 1RCJ   RELATED DB: PDB                                   
 900 TAZOBACTAM COMPLEXED TO THE E166A VARIANT OF SHV-1 BETA-LACTAMASE    

>  <DBREF>
 2H5S A   26   290  UNP    Q5PSW7   Q5PSW7_KLEPN    22    286             

>  <SEQRES>
   1 A  265  SER PRO GLN PRO LEU GLU GLN ILE LYS LEU SER GLU SER          
   2 A  265  GLN LEU SER GLY ARG VAL GLY MET ILE GLU MET ASP LEU          
   3 A  265  ALA SER GLY ARG THR LEU THR ALA TRP ARG ALA ASP GLU          
   4 A  265  ARG PHE PRO MET MET SER THR PHE LYS VAL VAL LEU CYS          
   5 A  265  GLY ALA VAL LEU ALA ARG VAL ASP ALA GLY ASP GLU GLN          
   6 A  265  LEU GLU ARG LYS ILE HIS TYR ARG GLN GLN ASP LEU VAL          
   7 A  265  ASP TYR SER PRO VAL SER GLU LYS HIS LEU ALA ASP GLY          
   8 A  265  MET THR VAL GLY GLU LEU CYS ALA ALA ALA ILE THR MET          
   9 A  265  SER ASP ASN SER ALA ALA ASN LEU LEU LEU ALA THR VAL          
  10 A  265  GLY GLY PRO ALA GLY LEU THR ALA PHE LEU ARG GLN ILE          
  11 A  265  GLY ASP ASN VAL THR ARG LEU ASP ARG TRP GLU THR GLU          
  12 A  265  LEU ASN GLU ALA LEU PRO GLY ASP ALA ARG ASP THR THR          
  13 A  265  THR PRO ALA SER MET ALA ALA THR LEU ARG LYS LEU LEU          
  14 A  265  THR SER GLN ARG LEU SER ALA ARG SER GLN ARG GLN LEU          
  15 A  265  LEU GLN TRP MET VAL ASP ASP ARG VAL ALA GLY PRO LEU          
  16 A  265  ILE ARG SER VAL LEU PRO ALA GLY TRP PHE ILE ALA ASP          
  17 A  265  LYS THR GLY ALA GLY GLU ARG GLY ALA ARG GLY ILE VAL          
  18 A  265  ALA LEU LEU GLY PRO ASN ASN LYS ALA GLU ARG ILE VAL          
  19 A  265  VAL ILE TYR LEU ARG ASP THR PRO ALA SER MET ALA GLU          
  20 A  265  ARG ASN GLN GLN ILE ALA GLY ILE GLY ALA ALA LEU ILE          
  21 A  265  GLU HIS TRP GLN ARG                                          

>  <HET>
 SA2  A 611      24                                                       
 MA4  A 400      35                                                       
 MA4  A 401       9                                                       

>  <HETNAM>
     SA2 (3R)-4-[(4-CARBOXYBUTANOYL)OXY]-N-[(1E)-3-OXOPROP-1-EN-          
   2 SA2  1-YL]-3-SULFINO-D-VALINE                                        
     MA4 CYCLOHEXYL-HEXYL-BETA-D-MALTOSIDE                                

>  <HETSYN>
     SA2 4-AZA-5-CARBOXY-6-SULFENATE-6-METHYL-8-OXA-9-OXO-TRIS-           
   2 SA2  2-TRANS-DECENEDIOIC ACID                                        

>  <FORMUL>
   2  SA2    C13 H19 N O9 S                                               
   3  MA4    2(C24 H44 O11)                                               
   5  HOH   *344(H2 O)                                                    

>  <HELIX>
   1   1 GLN A   28  SER A   41  1                                  14    
   2   2 THR A   71  ALA A   86  1                                  16    
   3   3 ARG A   98  LEU A  102  5                                   5    
   4   4 VAL A  108  LEU A  113  5                                   6    
   5   5 VAL A  119  MET A  129  1                                  11    
   6   6 ASP A  131  VAL A  142  1                                  12    
   7   7 GLY A  143  ILE A  155  1                                  13    
   8   8 THR A  167  GLU A  171  5                                   5    
   9   9 THR A  182  SER A  196  1                                  15    
  10  10 SER A  200  ASP A  213  1                                  14    
  11  11 ALA A  217  LEU A  225  1                                   9    
  12  12 SER A  271  HIS A  289  1                                  19    

>  <SHEET>
   1   A 5 THR A  56  TRP A  60  0                                        
   2   A 5 ARG A  43  ASP A  50 -1  N  GLU A  48   O  LEU A  57           
   3   A 5 ARG A 259  ARG A 266 -1  O  ILE A 260   N  MET A  49           
   4   A 5 ARG A 244  GLY A 251 -1  N  ARG A 244   O  LEU A 265           
   5   A 5 PHE A 230  ALA A 237 -1  N  PHE A 230   O  GLY A 251           
   1   B 2 PHE A  66  PRO A  67  0                                        
   2   B 2 THR A 180  THR A 181 -1  O  THR A 181   N  PHE A  66           
   1   C 2 LYS A  94  ILE A  95  0                                        
   2   C 2 MET A 117  THR A 118 -1  O  MET A 117   N  ILE A  95           

>  <SSBOND>
   1 CYS A   77    CYS A  123                          1555   1555  2.06  

>  <LINK>
       OG  SER A  70                 C7  SA2 A 611     1555   1555  1.40  

>  <CISPEP>
   1 GLU A  166    THR A  167          0         1.36                     

>  <SITE>
   1 AC1 17 MET A  69  SER A  70  SER A 130  ASN A 132                    
   2 AC1 17 THR A 167  ASN A 170  LYS A 234  THR A 235                    
   3 AC1 17 GLY A 236  ALA A 237  HOH A 694  HOH A 765                    
   4 AC1 17 HOH A 814  HOH A 838  HOH A 868  HOH A 904                    
   5 AC1 17 HOH A 950                                                     
   1 AC2 17 ARG A  93  HIS A  96  ARG A  98  VAL A 224                    
   2 AC2 17 PRO A 226  ILE A 246  ALA A 248  VAL A 261                    
   3 AC2 17 ILE A 263  ALA A 280  ALA A 284  GLU A 288                    
   4 AC2 17 HOH A 613  HOH A 658  HOH A 705  HOH A 710                    
   5 AC2 17 HOH A 876                                                     
   1 AC3  2 ARG A 244  ILE A 279                                          

>  <ORIGX1>
      1.000000  0.000000  0.000000        0.00000                         

>  <ORIGX2>
      0.000000  1.000000  0.000000        0.00000                         

>  <ORIGX3>
      0.000000  0.000000  1.000000        0.00000                         

>  <SCALE1>
      0.020076  0.000000  0.000000        0.00000                         

>  <SCALE2>
      0.000000  0.018109  0.000000        0.00000                         

>  <SCALE3>
      0.000000  0.000000  0.011844        0.00000                         

>  <MASTER>
      264    0    3   12    9    0   11    6 2436    1   71   21          

$$$$
