start_structures/Ligand_Substrate/Ligand_Complex_Stripped/SM2_1YM1.pdb
 OpenBabel08222315203D

 28 29  0  0  1  0  0  0  0  0999 V2000
   20.1970   58.2180    8.1220 N   0  0  0  0  0  0  0  0  0  0  0  0
   19.7960   57.3690    7.0030 C   0  0  2  0  0  0  0  0  0  0  0  0
   18.3910   57.6330    6.4810 C   0  0  0  0  0  0  0  0  0  0  0  0
   18.0450   57.0750    5.4420 O   0  0  0  0  0  0  0  0  0  0  0  0
   19.9450   55.8770    7.3380 C   0  0  0  0  0  0  0  0  0  0  0  0
   21.3050   55.4610    7.3270 O   0  0  0  0  0  0  0  0  0  0  0  0
   27.9890   56.4700   11.2410 C   0  0  0  0  0  0  0  0  0  0  0  0
   28.8260   57.3630   11.7060 C   0  0  0  0  0  0  0  0  0  0  0  0
   28.6030   57.8970   12.9140 C   0  0  0  0  0  0  0  0  0  0  0  0
   27.1380   57.1090   13.4180 S   0  0  0  0  0  0  0  0  0  0  0  0
   26.9470   56.1380   11.9870 C   0  0  0  0  0  0  0  0  0  0  0  0
   25.7850   55.1980   11.8150 C   0  0  0  0  0  0  0  0  0  0  0  0
   25.3540   54.9640   10.3670 C   0  0  0  0  0  0  0  0  0  0  0  0
   26.1510   54.5690    9.5190 O   0  0  0  0  0  0  0  0  0  0  0  0
   24.0770   55.2110   10.1200 N   0  0  0  0  0  0  0  0  0  0  0  0
   23.2630   54.7110    9.0000 C   0  0  2  0  0  0  0  0  0  0  0  0
   22.2990   55.8970    8.4880 B   0  0  0  0  0  0  0  0  0  0  0  0
   21.6030   56.3450    9.7110 O   0  0  0  0  0  0  0  0  0  0  0  0
   23.2650   56.9260    8.0160 O   0  0  0  0  0  0  0  0  0  0  0  0
   22.6240   53.3870    9.4310 C   0  0  0  0  0  0  0  0  0  0  0  0
   21.2850   53.2810    9.7890 C   0  0  0  0  0  0  0  0  0  0  0  0
   23.4130   52.2390    9.5030 C   0  0  0  0  0  0  0  0  0  0  0  0
   22.8690   51.0370    9.9370 C   0  0  0  0  0  0  0  0  0  0  0  0
   21.5330   50.9340   10.2950 C   0  0  0  0  0  0  0  0  0  0  0  0
   20.7370   52.0670   10.2160 C   0  0  0  0  0  0  0  0  0  0  0  0
   19.2440   51.9860   10.5710 C   0  0  0  0  0  0  0  0  0  0  0  0
   18.4830   52.8320   10.1010 O   0  0  0  0  0  0  0  0  0  0  0  0
   18.8100   51.0830   11.2960 O   0  0  0  0  0  0  0  0  0  0  0  0
  2  5  1  0  0  0  0
  2  1  1  1  0  0  0
  3  2  1  0  0  0  0
  4  3  2  0  0  0  0
  6 17  1  0  0  0  0
  6  5  1  0  0  0  0
  7  8  1  0  0  0  0
  7 11  2  0  0  0  0
  8  9  2  0  0  0  0
  9 10  1  0  0  0  0
 10 11  1  0  0  0  0
 11 12  1  0  0  0  0
 12 13  1  0  0  0  0
 13 14  2  0  0  0  0
 13 15  1  0  0  0  0
 16 15  1  1  0  0  0
 16 17  1  0  0  0  0
 16 20  1  0  0  0  0
 17 18  1  0  0  0  0
 17 19  1  0  0  0  0
 20 21  2  0  0  0  0
 20 22  1  0  0  0  0
 21 25  1  0  0  0  0
 22 23  2  0  0  0  0
 23 24  1  0  0  0  0
 24 25  2  0  0  0  0
 25 26  1  0  0  0  0
 26 27  2  0  0  0  0
 26 28  1  0  0  0  0
M  END
>  <HEADER>
    HYDROLASE                               20-JAN-05   1YM1              

>  <TITLE>
    X-RAY CRYSTALLOGRAPHIC STRUCTURE OF CTX-M-9 BETA-LACTAMASE            
   2 COMPLEXED WITH A BORONIC ACID INHIBITOR (SM2)                        

>  <COMPND>
    MOL_ID: 1;                                                            
   2 MOLECULE: BETA-LACTAMASE CTX-M-9A;                                   
   3 CHAIN: A, B;                                                         
   4 EC: 3.5.2.6;                                                         
   5 ENGINEERED: YES                                                      

>  <SOURCE>
    MOL_ID: 1;                                                            
   2 ORGANISM_SCIENTIFIC: ESCHERICHIA COLI;                               
   3 ORGANISM_TAXID: 562;                                                 
   4 GENE: CTX-M;                                                         
   5 EXPRESSION_SYSTEM: ESCHERICHIA COLI BL21(DE3);                       
   6 EXPRESSION_SYSTEM_TAXID: 469008;                                     
   7 EXPRESSION_SYSTEM_STRAIN: BL21(DE3);                                 
   8 EXPRESSION_SYSTEM_VECTOR_TYPE: PLASMID;                              
   9 EXPRESSION_SYSTEM_PLASMID: PET-9A                                    

>  <KEYWDS>
    CTX-M, BETA-LACTAMASE, TRANSITION STATE, DEACYLATION,                 
   2 BORONIC ACID, HYDROLASE                                              

>  <EXPDTA>
    X-RAY DIFFRACTION                                                     

>  <AUTHOR>
    Y.CHEN,B.SHOICHET,R.BONNET                                            

>  <REVDAT>
   2   24-FEB-09 1YM1    1       VERSN                                    
   1   26-APR-05 1YM1    0                                                

>  <JRNL>
      AUTH   Y.CHEN,B.SHOICHET,R.BONNET                                   
      TITL   STRUCTURE, FUNCTION, AND INHIBITION ALONG THE                
      TITL 2 REACTION COORDINATE OF CTX-M BETA-LACTAMASES.                
      REF    J.AM.CHEM.SOC.                V. 127  5423 2005              
      REFN                   ISSN 0002-7863                               
      PMID   15826180                                                     
      DOI    10.1021/JA042850A                                            

>  <REMARK>
   1                                                                      
   2                                                                      
   2 RESOLUTION.    1.12 ANGSTROMS.                                       
   3                                                                      
   3 REFINEMENT.                                                          
   3   PROGRAM     : SHELXL-97                                            
   3   AUTHORS     : G.M.SHELDRICK                                        
   3                                                                      
   3  DATA USED IN REFINEMENT.                                            
   3   RESOLUTION RANGE HIGH (ANGSTROMS) : 1.12                           
   3   RESOLUTION RANGE LOW  (ANGSTROMS) : 10.00                          
   3   DATA CUTOFF            (SIGMA(F)) : 0.000                          
   3   COMPLETENESS FOR RANGE        (%) : 79.1                           
   3   CROSS-VALIDATION METHOD           : FREE R                         
   3   FREE R VALUE TEST SET SELECTION   : RANDOM                         
   3                                                                      
   3  FIT TO DATA USED IN REFINEMENT (NO CUTOFF).                         
   3   R VALUE   (WORKING + TEST SET, NO CUTOFF) : 0.106                  
   3   R VALUE          (WORKING SET, NO CUTOFF) : 0.107                  
   3   FREE R VALUE                  (NO CUTOFF) : 0.140                  
   3   FREE R VALUE TEST SET SIZE (%, NO CUTOFF) : 5.000                  
   3   FREE R VALUE TEST SET COUNT   (NO CUTOFF) : 6644                   
   3   TOTAL NUMBER OF REFLECTIONS   (NO CUTOFF) : 133427                 
   3                                                                      
   3  FIT/AGREEMENT OF MODEL FOR DATA WITH F>4SIG(F).                     
   3   R VALUE   (WORKING + TEST SET, F>4SIG(F)) : 0.102                  
   3   R VALUE          (WORKING SET, F>4SIG(F)) : 0.102                  
   3   FREE R VALUE                  (F>4SIG(F)) : 0.135                  
   3   FREE R VALUE TEST SET SIZE (%, F>4SIG(F)) : 4.900                  
   3   FREE R VALUE TEST SET COUNT   (F>4SIG(F)) : 6016                   
   3   TOTAL NUMBER OF REFLECTIONS   (F>4SIG(F)) : 121962                 
   3                                                                      
   3  NUMBER OF NON-HYDROGEN ATOMS USED IN REFINEMENT.                    
   3   PROTEIN ATOMS      : 4211                                          
   3   NUCLEIC ACID ATOMS : 0                                             
   3   HETEROGEN ATOMS    : 64                                            
   3   SOLVENT ATOMS      : 861                                           
   3                                                                      
   3  MODEL REFINEMENT.                                                   
   3   OCCUPANCY SUM OF NON-HYDROGEN ATOMS      : 4732.80                 
   3   OCCUPANCY SUM OF HYDROGEN ATOMS          : 3767.81                 
   3   NUMBER OF DISCRETELY DISORDERED RESIDUES : 86                      
   3   NUMBER OF LEAST-SQUARES PARAMETERS       : 46244                   
   3   NUMBER OF RESTRAINTS                     : 58327                   
   3                                                                      
   3  RMS DEVIATIONS FROM RESTRAINT TARGET VALUES.                        
   3   BOND LENGTHS                         (A) : 0.006                   
   3   ANGLE DISTANCES                      (A) : 0.022                   
   3   SIMILAR DISTANCES (NO TARGET VALUES) (A) : 0.000                   
   3   DISTANCES FROM RESTRAINT PLANES      (A) : 0.037                   
   3   ZERO CHIRAL VOLUMES               (A**3) : 0.103                   
   3   NON-ZERO CHIRAL VOLUMES           (A**3) : 0.058                   
   3   ANTI-BUMPING DISTANCE RESTRAINTS     (A) : 0.017                   
   3   RIGID-BOND ADP COMPONENTS         (A**2) : 0.001                   
   3   SIMILAR ADP COMPONENTS            (A**2) : 0.026                   
   3   APPROXIMATELY ISOTROPIC ADPS      (A**2) : 0.074                   
   3                                                                      
   3  BULK SOLVENT MODELING.                                              
   3   METHOD USED: NULL                                                  
   3                                                                      
   3  STEREOCHEMISTRY TARGET VALUES : ENGH AND HUBER                      
   3   SPECIAL CASE: NULL                                                 
   3                                                                      
   3  OTHER REFINEMENT REMARKS: ANISOTROPIC REFINEMENT. RIDING            
   3  HYDROGENS INCLUDED IN REFINEMENT. THIS STRUCTURE CONTAINS BOTH      
   3  APO AND COMPLEX STATES IN EACH MONOMER.                             
   4                                                                      
   4 1YM1 COMPLIES WITH FORMAT V. 3.15, 01-DEC-08                         
 100                                                                      
 100 THIS ENTRY HAS BEEN PROCESSED BY RCSB ON 07-FEB-05.                  
 100 THE RCSB ID CODE IS RCSB031672.                                      
 200                                                                      
 200 EXPERIMENTAL DETAILS                                                 
 200  EXPERIMENT TYPE                : X-RAY DIFFRACTION                  
 200  DATE OF DATA COLLECTION        : 17-JUL-04                          
 200  TEMPERATURE           (KELVIN) : 100.0                              
 200  PH                             : 8.80                               
 200  NUMBER OF CRYSTALS USED        : 1                                  
 200                                                                      
 200  SYNCHROTRON              (Y/N) : Y                                  
 200  RADIATION SOURCE               : ALS                                
 200  BEAMLINE                       : 8.3.1                              
 200  X-RAY GENERATOR MODEL          : NULL                               
 200  MONOCHROMATIC OR LAUE    (M/L) : M                                  
 200  WAVELENGTH OR RANGE        (A) : 1.11587                            
 200  MONOCHROMATOR                  : DOUBLE CRYSTAL                     
 200  OPTICS                         : MIRRORS                            
 200                                                                      
 200  DETECTOR TYPE                  : CCD                                
 200  DETECTOR MANUFACTURER          : ADSC QUANTUM 4                     
 200  INTENSITY-INTEGRATION SOFTWARE : DENZO                              
 200  DATA SCALING SOFTWARE          : SCALEPACK                          
 200                                                                      
 200  NUMBER OF UNIQUE REFLECTIONS   : 143714                             
 200  RESOLUTION RANGE HIGH      (A) : 1.120                              
 200  RESOLUTION RANGE LOW       (A) : 30.000                             
 200  REJECTION CRITERIA  (SIGMA(I)) : -3.000                             
 200                                                                      
 200 OVERALL.                                                             
 200  COMPLETENESS FOR RANGE     (%) : 85.1                               
 200  DATA REDUNDANCY                : 9.010                              
 200  R MERGE                    (I) : 0.05400                            
 200  R SYM                      (I) : NULL                               
 200  <I/SIGMA(I)> FOR THE DATA SET  : 22.9000                            
 200                                                                      
 200 IN THE HIGHEST RESOLUTION SHELL.                                     
 200  HIGHEST RESOLUTION SHELL, RANGE HIGH (A) : 1.12                     
 200  HIGHEST RESOLUTION SHELL, RANGE LOW  (A) : 1.16                     
 200  COMPLETENESS FOR SHELL     (%) : 23.1                               
 200  DATA REDUNDANCY IN SHELL       : NULL                               
 200  R MERGE FOR SHELL          (I) : 0.28700                            
 200  R SYM FOR SHELL            (I) : NULL                               
 200  <I/SIGMA(I)> FOR SHELL         : 1.920                              
 200                                                                      
 200 DIFFRACTION PROTOCOL: SINGLE WAVELENGTH                              
 200 METHOD USED TO DETERMINE THE STRUCTURE: MOLECULAR REPLACEMENT        
 200 SOFTWARE USED: SHELX                                                 
 200 STARTING MODEL: 1YLJ                                                 
 200                                                                      
 200 REMARK: NULL                                                         
 280                                                                      
 280 CRYSTAL                                                              
 280 SOLVENT CONTENT, VS   (%): 27.40                                     
 280 MATTHEWS COEFFICIENT, VM (ANGSTROMS**3/DA): 1.69                     
 280                                                                      
 280 CRYSTALLIZATION CONDITIONS: POTASSIUM PHOSPHATE, PH 8.8, VAPOR       
 280  DIFFUSION, HANGING DROP, TEMPERATURE 293K, PH 8.80                  
 290                                                                      
 290 CRYSTALLOGRAPHIC SYMMETRY                                            
 290 SYMMETRY OPERATORS FOR SPACE GROUP: P 1 21 1                         
 290                                                                      
 290      SYMOP   SYMMETRY                                                
 290     NNNMMM   OPERATOR                                                
 290       1555   X,Y,Z                                                   
 290       2555   -X,Y+1/2,-Z                                             
 290                                                                      
 290     WHERE NNN -> OPERATOR NUMBER                                     
 290           MMM -> TRANSLATION VECTOR                                  
 290                                                                      
 290 CRYSTALLOGRAPHIC SYMMETRY TRANSFORMATIONS                            
 290 THE FOLLOWING TRANSFORMATIONS OPERATE ON THE ATOM/HETATM             
 290 RECORDS IN THIS ENTRY TO PRODUCE CRYSTALLOGRAPHICALLY                
 290 RELATED MOLECULES.                                                   
 290   SMTRY1   1  1.000000  0.000000  0.000000        0.00000            
 290   SMTRY2   1  0.000000  1.000000  0.000000        0.00000            
 290   SMTRY3   1  0.000000  0.000000  1.000000        0.00000            
 290   SMTRY1   2 -1.000000  0.000000  0.000000        0.00000            
 290   SMTRY2   2  0.000000  1.000000  0.000000       53.35850            
 290   SMTRY3   2  0.000000  0.000000 -1.000000        0.00000            
 290                                                                      
 290 REMARK: NULL                                                         
 300                                                                      
 300 BIOMOLECULE: 1, 2                                                    
 300 SEE REMARK 350 FOR THE AUTHOR PROVIDED AND/OR PROGRAM                
 300 GENERATED ASSEMBLY INFORMATION FOR THE STRUCTURE IN                  
 300 THIS ENTRY. THE REMARK MAY ALSO PROVIDE INFORMATION ON               
 300 BURIED SURFACE AREA.                                                 
 350                                                                      
 350 COORDINATES FOR A COMPLETE MULTIMER REPRESENTING THE KNOWN           
 350 BIOLOGICALLY SIGNIFICANT OLIGOMERIZATION STATE OF THE                
 350 MOLECULE CAN BE GENERATED BY APPLYING BIOMT TRANSFORMATIONS          
 350 GIVEN BELOW.  BOTH NON-CRYSTALLOGRAPHIC AND                          
 350 CRYSTALLOGRAPHIC OPERATIONS ARE GIVEN.                               
 350                                                                      
 350 BIOMOLECULE: 1                                                       
 350 AUTHOR DETERMINED BIOLOGICAL UNIT: MONOMERIC                         
 350 APPLY THE FOLLOWING TO CHAINS: A                                     
 350   BIOMT1   1  1.000000  0.000000  0.000000        0.00000            
 350   BIOMT2   1  0.000000  1.000000  0.000000        0.00000            
 350   BIOMT3   1  0.000000  0.000000  1.000000        0.00000            
 350                                                                      
 350 BIOMOLECULE: 2                                                       
 350 AUTHOR DETERMINED BIOLOGICAL UNIT: MONOMERIC                         
 350 APPLY THE FOLLOWING TO CHAINS: B                                     
 350   BIOMT1   1  1.000000  0.000000  0.000000        0.00000            
 350   BIOMT2   1  0.000000  1.000000  0.000000        0.00000            
 350   BIOMT3   1  0.000000  0.000000  1.000000        0.00000            
 465                                                                      
 465 MISSING RESIDUES                                                     
 465 THE FOLLOWING RESIDUES WERE NOT LOCATED IN THE                       
 465 EXPERIMENT. (M=MODEL NUMBER; RES=RESIDUE NAME; C=CHAIN               
 465 IDENTIFIER; SSSEQ=SEQUENCE NUMBER; I=INSERTION CODE.)                
 465                                                                      
 465   M RES C SSSEQI                                                     
 465     GLN B    25                                                      
 465     THR B    26                                                      
 465     SER B    27                                                      
 500                                                                      
 500 GEOMETRY AND STEREOCHEMISTRY                                         
 500 SUBTOPIC: COVALENT BOND ANGLES                                       
 500                                                                      
 500 THE STEREOCHEMICAL PARAMETERS OF THE FOLLOWING RESIDUES              
 500 HAVE VALUES WHICH DEVIATE FROM EXPECTED VALUES BY MORE               
 500 THAN 6*RMSD (M=MODEL NUMBER; RES=RESIDUE NAME; C=CHAIN               
 500 IDENTIFIER; SSEQ=SEQUENCE NUMBER; I=INSERTION CODE).                 
 500                                                                      
 500 STANDARD TABLE:                                                      
 500 FORMAT: (10X,I3,1X,A3,1X,A1,I4,A1,3(1X,A4,2X),12X,F5.1)              
 500                                                                      
 500 EXPECTED VALUES PROTEIN: ENGH AND HUBER, 1999                        
 500 EXPECTED VALUES NUCLEIC ACID: CLOWNEY ET AL 1996                     
 500                                                                      
 500  M RES CSSEQI ATM1   ATM2   ATM3                                     
 500    ARG A  61   NE  -  CZ  -  NH2 ANGL. DEV. =  -4.7 DEGREES          
 500    ARG A 204   NE  -  CZ  -  NH2 ANGL. DEV. =   3.6 DEGREES          
 500    ARG A 222   CD  -  NE  -  CZ  ANGL. DEV. =   8.8 DEGREES          
 500    ARG A 222   NE  -  CZ  -  NH2 ANGL. DEV. =  -4.1 DEGREES          
 500    ARG A 222   NE  -  CZ  -  NH2 ANGL. DEV. =  -4.0 DEGREES          
 500    ARG A 256   NE  -  CZ  -  NH1 ANGL. DEV. =   3.1 DEGREES          
 500    ARG B 164   NE  -  CZ  -  NH2 ANGL. DEV. =  -3.0 DEGREES          
 500    ARG B 284   NE  -  CZ  -  NH2 ANGL. DEV. =   4.8 DEGREES          
 500                                                                      
 500 REMARK: NULL                                                         
 500                                                                      
 500 GEOMETRY AND STEREOCHEMISTRY                                         
 500 SUBTOPIC: TORSION ANGLES                                             
 500                                                                      
 500 TORSION ANGLES OUTSIDE THE EXPECTED RAMACHANDRAN REGIONS:            
 500 (M=MODEL NUMBER; RES=RESIDUE NAME; C=CHAIN IDENTIFIER;               
 500 SSEQ=SEQUENCE NUMBER; I=INSERTION CODE).                             
 500                                                                      
 500 STANDARD TABLE:                                                      
 500 FORMAT:(10X,I3,1X,A3,1X,A1,I4,A1,4X,F7.2,3X,F7.2)                    
 500                                                                      
 500 EXPECTED VALUES: GJ KLEYWEGT AND TA JONES (1996). PHI/PSI-           
 500 CHOLOGY: RAMACHANDRAN REVISITED. STRUCTURE 4, 1395 - 1400            
 500                                                                      
 500  M RES CSSEQI        PSI       PHI                                   
 500    CYS A  69     -139.31     47.81                                   
 500    VAL A 103     -134.44   -119.50                                   
 500    ASN A 106       47.41   -141.80                                   
 500    SER A 220     -126.43   -107.23                                   
 500    ASP B  53       11.53   -145.68                                   
 500    CYS B  69     -137.89     48.46                                   
 500    VAL B 103     -133.28   -116.43                                   
 500    SER B 220     -128.08   -106.80                                   
 500                                                                      
 500 REMARK: NULL                                                         
 525                                                                      
 525 SOLVENT                                                              
 525                                                                      
 525 THE SOLVENT MOLECULES HAVE CHAIN IDENTIFIERS THAT                    
 525 INDICATE THE POLYMER CHAIN WITH WHICH THEY ARE MOST                  
 525 CLOSELY ASSOCIATED. THE REMARK LISTS ALL THE SOLVENT                 
 525 MOLECULES WHICH ARE MORE THAN 5A AWAY FROM THE                       
 525 NEAREST POLYMER CHAIN (M = MODEL NUMBER;                             
 525 RES=RESIDUE NAME; C=CHAIN IDENTIFIER; SSEQ=SEQUENCE                  
 525 NUMBER; I=INSERTION CODE):                                           
 525                                                                      
 525  M RES CSSEQI                                                        
 525    HOH B3607        DISTANCE =  5.57 ANGSTROMS                       
 800                                                                      
 800 SITE                                                                 
 800 SITE_IDENTIFIER: AC1                                                 
 800 EVIDENCE_CODE: SOFTWARE                                              
 800 SITE_DESCRIPTION: BINDING SITE FOR RESIDUE PO4 A 2011                
 800 SITE_IDENTIFIER: AC2                                                 
 800 EVIDENCE_CODE: SOFTWARE                                              
 800 SITE_DESCRIPTION: BINDING SITE FOR RESIDUE PO4 B 2012                
 800 SITE_IDENTIFIER: AC3                                                 
 800 EVIDENCE_CODE: SOFTWARE                                              
 800 SITE_DESCRIPTION: BINDING SITE FOR RESIDUE PO4 A 2013                
 800 SITE_IDENTIFIER: AC4                                                 
 800 EVIDENCE_CODE: SOFTWARE                                              
 800 SITE_DESCRIPTION: BINDING SITE FOR RESIDUE PO4 B 2014                
 800 SITE_IDENTIFIER: AC5                                                 
 800 EVIDENCE_CODE: SOFTWARE                                              
 800 SITE_DESCRIPTION: BINDING SITE FOR RESIDUE SM2 A 2001                
 800 SITE_IDENTIFIER: AC6                                                 
 800 EVIDENCE_CODE: SOFTWARE                                              
 800 SITE_DESCRIPTION: BINDING SITE FOR RESIDUE SM2 B 2002                
 900                                                                      
 900 RELATED ENTRIES                                                      
 900 RELATED ID: 1YLJ   RELATED DB: PDB                                   

>  <DBREF>
 1YM1 A   25   290  UNP    Q9L5C8   Q9L5C8_ECOLI    29    291             
 1YM1 B   25   290  UNP    Q9L5C8   Q9L5C8_ECOLI    29    291             

>  <SEQRES>
   1 A  263  GLN THR SER ALA VAL GLN GLN LYS LEU ALA ALA LEU GLU          
   2 A  263  LYS SER SER GLY GLY ARG LEU GLY VAL ALA LEU ILE ASP          
   3 A  263  THR ALA ASP ASN THR GLN VAL LEU TYR ARG GLY ASP GLU          
   4 A  263  ARG PHE PRO MET CYS SER THR SER LYS VAL MET ALA ALA          
   5 A  263  ALA ALA VAL LEU LYS GLN SER GLU THR GLN LYS GLN LEU          
   6 A  263  LEU ASN GLN PRO VAL GLU ILE LYS PRO ALA ASP LEU VAL          
   7 A  263  ASN TYR ASN PRO ILE ALA GLU LYS HIS VAL ASN GLY THR          
   8 A  263  MET THR LEU ALA GLU LEU SER ALA ALA ALA LEU GLN TYR          
   9 A  263  SER ASP ASN THR ALA MET ASN LYS LEU ILE ALA GLN LEU          
  10 A  263  GLY GLY PRO GLY GLY VAL THR ALA PHE ALA ARG ALA ILE          
  11 A  263  GLY ASP GLU THR PHE ARG LEU ASP ARG THR GLU PRO THR          
  12 A  263  LEU ASN THR ALA ILE PRO GLY ASP PRO ARG ASP THR THR          
  13 A  263  THR PRO ARG ALA MET ALA GLN THR LEU ARG GLN LEU THR          
  14 A  263  LEU GLY HIS ALA LEU GLY GLU THR GLN ARG ALA GLN LEU          
  15 A  263  VAL THR TRP LEU LYS GLY ASN THR THR GLY ALA ALA SER          
  16 A  263  ILE ARG ALA GLY LEU PRO THR SER TRP THR ALA GLY ASP          
  17 A  263  LYS THR GLY SER GLY ASP TYR GLY THR THR ASN ASP ILE          
  18 A  263  ALA VAL ILE TRP PRO GLN GLY ARG ALA PRO LEU VAL LEU          
  19 A  263  VAL THR TYR PHE THR GLN PRO GLN GLN ASN ALA GLU SER          
  20 A  263  ARG ARG ASP VAL LEU ALA SER ALA ALA ARG ILE ILE ALA          
  21 A  263  GLU GLY LEU                                                  
   1 B  263  GLN THR SER ALA VAL GLN GLN LYS LEU ALA ALA LEU GLU          
   2 B  263  LYS SER SER GLY GLY ARG LEU GLY VAL ALA LEU ILE ASP          
   3 B  263  THR ALA ASP ASN THR GLN VAL LEU TYR ARG GLY ASP GLU          
   4 B  263  ARG PHE PRO MET CYS SER THR SER LYS VAL MET ALA ALA          
   5 B  263  ALA ALA VAL LEU LYS GLN SER GLU THR GLN LYS GLN LEU          
   6 B  263  LEU ASN GLN PRO VAL GLU ILE LYS PRO ALA ASP LEU VAL          
   7 B  263  ASN TYR ASN PRO ILE ALA GLU LYS HIS VAL ASN GLY THR          
   8 B  263  MET THR LEU ALA GLU LEU SER ALA ALA ALA LEU GLN TYR          
   9 B  263  SER ASP ASN THR ALA MET ASN LYS LEU ILE ALA GLN LEU          
  10 B  263  GLY GLY PRO GLY GLY VAL THR ALA PHE ALA ARG ALA ILE          
  11 B  263  GLY ASP GLU THR PHE ARG LEU ASP ARG THR GLU PRO THR          
  12 B  263  LEU ASN THR ALA ILE PRO GLY ASP PRO ARG ASP THR THR          
  13 B  263  THR PRO ARG ALA MET ALA GLN THR LEU ARG GLN LEU THR          
  14 B  263  LEU GLY HIS ALA LEU GLY GLU THR GLN ARG ALA GLN LEU          
  15 B  263  VAL THR TRP LEU LYS GLY ASN THR THR GLY ALA ALA SER          
  16 B  263  ILE ARG ALA GLY LEU PRO THR SER TRP THR ALA GLY ASP          
  17 B  263  LYS THR GLY SER GLY ASP TYR GLY THR THR ASN ASP ILE          
  18 B  263  ALA VAL ILE TRP PRO GLN GLY ARG ALA PRO LEU VAL LEU          
  19 B  263  VAL THR TYR PHE THR GLN PRO GLN GLN ASN ALA GLU SER          
  20 B  263  ARG ARG ASP VAL LEU ALA SER ALA ALA ARG ILE ILE ALA          
  21 B  263  GLU GLY LEU                                                  

>  <HET>
 PO4  A2011       5                                                       
 PO4  B2012       5                                                       
 PO4  A2013       5                                                       
 PO4  B2014       5                                                       
 SM2  A2001      22                                                       
 SM2  B2002      22                                                       

>  <HETNAM>
     PO4 PHOSPHATE ION                                                    
     SM2 (1R)-1-(2-THIENYLACETYLAMINO)-1-(3-CARBOXYPHENYL)                
   2 SM2  METHYLBORONIC ACID                                              

>  <FORMUL>
   3  PO4    4(O4 P 3-)                                                   
   7  SM2    2(C14 H14 B N O5 S)                                          
   9  HOH   *861(H2 O)                                                    

>  <HELIX>
   1   1 SER A   27  GLY A   41  1                                  15    
   2   2 CYS A   69  THR A   71  5                                   3    
   3   3 SER A   72  GLU A   85  1                                  14    
   4   4 GLN A   89  ASN A   92  5                                   4    
   5   5 LYS A   98  LEU A  102  5                                   5    
   6   6 ILE A  108  VAL A  113  5                                   6    
   7   7 LEU A  119  SER A  130  1                                  12    
   8   8 ASP A  131  LEU A  142  1                                  12    
   9   9 GLY A  144  ILE A  155  1                                  12    
  10  10 PRO A  167  THR A  171  5                                   5    
  11  11 THR A  182  LEU A  195  1                                  14    
  12  12 GLY A  200  GLY A  213  1                                  14    
  13  13 SER A  220  LEU A  225  5                                   6    
  14  14 ARG A  275  LEU A  290  1                                  16    
  15  15 ALA B   28  GLY B   41  1                                  14    
  16  16 CYS B   69  THR B   71  5                                   3    
  17  17 SER B   72  GLU B   85  1                                  14    
  18  18 GLN B   89  ASN B   92  5                                   4    
  19  19 LYS B   98  LEU B  102  5                                   5    
  20  20 ILE B  108  VAL B  113  5                                   6    
  21  21 LEU B  119  SER B  130  1                                  12    
  22  22 ASP B  131  LEU B  142  1                                  12    
  23  23 GLY B  144  ILE B  155  1                                  12    
  24  24 PRO B  167  THR B  171  5                                   5    
  25  25 THR B  182  LEU B  195  1                                  14    
  26  26 GLY B  200  GLY B  213  1                                  14    
  27  27 SER B  220  LEU B  225  5                                   6    
  28  28 ARG B  275  LEU B  290  1                                  16    

>  <SHEET>
   1   A 5 GLN A  56  TYR A  60  0                                        
   2   A 5 ARG A  43  ASP A  50 -1  N  LEU A  48   O  VAL A  57           
   3   A 5 LEU A 259  THR A 266 -1  O  TYR A 264   N  GLY A  45           
   4   A 5 THR A 243  TRP A 251 -1  N  ILE A 250   O  LEU A 259           
   5   A 5 THR A 230  GLY A 238 -1  N  THR A 230   O  TRP A 251           
   1   B 2 PHE A  66  PRO A  67  0                                        
   2   B 2 THR A 180  THR A 181 -1  O  THR A 181   N  PHE A  66           
   1   C 2 PRO A  94  ILE A  97  0                                        
   2   C 2 GLY A 115  THR A 118 -1  O  GLY A 115   N  ILE A  97           
   1   D 5 GLN B  56  TYR B  60  0                                        
   2   D 5 ARG B  43  ASP B  50 -1  N  VAL B  46   O  TYR B  60           
   3   D 5 LEU B 259  THR B 266 -1  O  TYR B 264   N  GLY B  45           
   4   D 5 THR B 243  TRP B 251 -1  N  ILE B 250   O  LEU B 259           
   5   D 5 THR B 230  GLY B 238 -1  N  THR B 230   O  TRP B 251           
   1   E 2 PHE B  66  PRO B  67  0                                        
   2   E 2 THR B 180  THR B 181 -1  O  THR B 181   N  PHE B  66           
   1   F 2 PRO B  94  ILE B  97  0                                        
   2   F 2 GLY B 115  THR B 118 -1  O  GLY B 115   N  ILE B  97           

>  <LINK>
       B  ASM2 A2001                 OG  SER A  70     1555   1555  1.59  
       B  ASM2 B2002                 OG  SER B  70     1555   1555  1.58  

>  <CISPEP>
   1 GLU A  166    PRO A  167          0         1.74                     
   2 GLU B  166    PRO B  167          0         3.32                     

>  <SITE>
   1 AC1  9 SER A  70  SER A 130  THR A 235  GLY A 236                    
   2 AC1  9 SER A 237  HOH A3087  HOH A3323  HOH A3745                    
   3 AC1  9 HOH A3746                                                     
   1 AC2  9 SER B  70  SER B 130  THR B 235  GLY B 236                    
   2 AC2  9 SER B 237  HOH B3064  HOH B3508  HOH B3747                    
   3 AC2  9 HOH B3749                                                     
   1 AC3 10 ARG A 153  GLU A 158  HOH A3301  HOH A3346                    
   2 AC3 10 HOH A3688  HOH A3827  HIS B 197  ARG B 204                    
   3 AC3 10 HOH B3335  HOH B3612                                          
   1 AC4 11 PRO A 177  HOH A3159  HOH A3752  LYS B  88                    
   2 AC4 11 THR B 202  GLN B 203  HOH B3051  HOH B3368                    
   3 AC4 11 HOH B3553  HOH B3666  HOH B3774                               
   1 AC5 21 CYS A  69  SER A  70  LYS A  73  ASN A 104                    
   2 AC5 21 TYR A 105  SER A 130  ASN A 132  GLU A 166                    
   3 AC5 21 ASN A 170  LYS A 234  THR A 235  GLY A 236                    
   4 AC5 21 SER A 237  ASP A 240  HOH A3332  HOH A3380                    
   5 AC5 21 HOH A3462  HOH A3744  HOH A3745  HOH A3746                    
   6 AC5 21 HOH A3837                                                     
   1 AC6 20 CYS B  69  SER B  70  LYS B  73  ASN B 104                    
   2 AC6 20 TYR B 105  SER B 130  ASN B 132  GLU B 166                    
   3 AC6 20 ASN B 170  LYS B 234  THR B 235  GLY B 236                    
   4 AC6 20 SER B 237  ASP B 240  ARG B 276  HOH B3456                    
   5 AC6 20 HOH B3747  HOH B3748  HOH B3749  HOH B3838                    

>  <ORIGX1>
      1.000000  0.000000  0.000000        0.00000                         

>  <ORIGX2>
      0.000000  1.000000  0.000000        0.00000                         

>  <ORIGX3>
      0.000000  0.000000  1.000000        0.00000                         

>  <SCALE1>
      0.022163  0.000000  0.004666        0.00000                         

>  <SCALE2>
      0.000000  0.009371  0.000000        0.00000                         

>  <SCALE3>
      0.000000  0.000000  0.021416        0.00000                         

>  <ANISOU>
  365  N   SER A  70      885    951    890    -81    114      5       N  
  366  CA  SER A  70      971    901    875    -11    180    -21       C  
  367  C   SER A  70      923    773    810   -140    173    -46       C  
  368  O   SER A  70     1131    889    815   -125    162   -103       O  
  369  CB  SER A  70      960    886   1310    -19    189     17       C  
  370  OG  SER A  70     1019   1126   1738    151     81   -141       O  
 4224  CAFASM2 A2001     2335   2742   1968   -578   -858    323       C  
 4225  CACASM2 A2001     2731   2598   2030   -575   -901    149       C  
 4226  CABASM2 A2001     2975   2853   1831   -464   -959    306       C  
 4227  SADASM2 A2001     3176   2530   3048   -401    -43   -539       S  
 4228  CAEASM2 A2001     2429   2877   1948   -368   -685    282       C  
 4229  CAGASM2 A2001     1958   2781   1675    -69   -377    186       C  
 4230  CAHASM2 A2001     1382   2149   1520     80    -17    176       C  
 4231  OAIASM2 A2001     1477   1911   1943    453     40    150       O  
 4232  NAJASM2 A2001     1461   1752   1437    306    -17   -126       N  
 4233  CAKASM2 A2001     1353   1552   1578    288    -13   -168       C  
 4234  B  ASM2 A2001     1052   1454   1689     65     37    -32       B  
 4235  OATASM2 A2001     1398   1342   1473    362    -53    174       O  
 4236  OAOASM2 A2001     1595   1968   1277   -452   -321    231       O  
 4237  CALASM2 A2001     1577   1580   1473    312    -57      8       C  
 4238  CAQASM2 A2001     1732   1489   1493    129    207   -295       C  
 4239  CAMASM2 A2001     1886   1639   1880    455    -86     27       C  
 4240  CANASM2 A2001     2017   1728   1740    510   -184    281       C  
 4241  CASASM2 A2001     2132   1716   1713    356    -17    128       C  
 4242  CARASM2 A2001     1894   1528   1686    181    183    -85       C  
 4243  CAUASM2 A2001     1938   1647   2057     63    267    143       C  
 4244  OAWASM2 A2001     1774   1979   2475     17   -213     96       O  
 4245  OAVASM2 A2001     2422   1894   2731   -422    266    349       O  

>  <MASTER>
      274    0    6   28   18    0   23    6 5136    2   66   42          

$$$$
