start_structures/Ligand_Substrate/Ligand_Complex_Stripped/SM3_1MY8.pdb
 OpenBabel08222315203D

 50 47  0  0  1  0  0  0  0  0999 V2000
   26.6580    1.7010   16.1520 N   0  0  0  0  0  0  0  0  0  0  0  0
   26.6620    1.7020   16.1580 N   0  0  0  0  0  0  0  0  0  0  0  0
   27.9970    2.1760   16.4530 C   0  0  0  0  0  0  0  0  0  0  0  0
   28.0010    2.1760   16.4510 C   0  0  0  0  0  0  0  0  0  0  0  0
   28.9100    1.2370   17.2350 C   0  0  0  0  0  0  0  0  0  0  0  0
   28.9060    1.2500   17.2620 C   0  0  0  0  0  0  0  0  0  0  0  0
   30.1080    1.5070   17.3580 O   0  0  0  0  0  0  0  0  0  0  0  0
   30.0880    1.5520   17.4400 O   0  0  0  0  0  0  0  0  0  0  0  0
   27.9600    3.5630   17.0920 C   0  0  0  0  0  0  0  0  0  0  0  0
   27.9580    3.5660   17.0900 C   0  0  0  0  0  0  0  0  0  0  0  0
   27.6100    4.4940   16.0820 O   0  0  0  0  0  0  0  0  0  0  0  0
   27.5480    4.4760   16.0860 O   0  0  0  0  0  0  0  0  0  0  0  0
   21.3760    5.6630   12.9020 C   0  0  0  0  0  0  0  0  0  0  0  0
   21.4730    4.9530   11.1880 C   0  0  0  0  0  0  0  0  0  0  0  0
   20.2550    5.9910   12.0770 C   0  0  0  0  0  0  0  0  0  0  0  0
   20.2130    5.6050   11.3830 C   0  0  0  0  0  0  0  0  0  0  0  0
   20.3930    5.5700   10.7980 C   0  0  0  0  0  0  0  0  0  0  0  0
   20.0430    6.0840   12.6360 C   0  0  0  0  0  0  0  0  0  0  0  0
   21.8700    4.7660   10.5360 S   0  0  1  0  0  0  0  0  0  0  0  0
   21.3870    5.7730   13.6280 S   0  0  0  0  0  0  0  0  0  0  0  0
   22.3520    4.9810   12.1710 C   0  0  0  0  0  0  0  0  0  0  0  0
   22.2360    4.9730   12.3550 C   0  0  0  0  0  0  0  0  0  0  0  0
   23.6970    4.4390   12.6240 C   0  0  0  0  0  0  0  0  0  0  0  0
   23.6320    4.3910   12.5910 C   0  0  0  0  0  0  0  0  0  0  0  0
   24.5080    5.5520   13.3120 C   0  0  0  0  0  0  0  0  0  0  0  0
   24.5330    5.4550   13.2390 C   0  0  0  0  0  0  0  0  0  0  0  0
   24.7450    6.6240   12.7270 O   0  0  0  0  0  0  0  0  0  0  0  0
   24.8950    6.4480   12.5910 O   0  0  0  0  0  0  0  0  0  0  0  0
   24.9370    5.2900   14.5650 N   0  0  0  0  0  0  0  0  0  0  0  0
   24.8960    5.2510   14.5280 N   0  0  0  0  0  0  0  0  0  0  0  0
   25.7220    6.1670   15.4200 C   0  0  2  0  0  0  0  0  0  0  0  0
   25.7370    6.1290   15.3270 C   0  0  2  0  0  0  0  0  0  0  0  0
   26.2890    5.3370   16.6210 B   0  0  0  0  0  0  0  0  0  0  0  0
   26.3080    5.3460   16.5600 B   0  0  0  0  0  0  0  0  0  0  0  0
   25.2530    4.4120   17.1330 O   0  0  0  0  0  0  0  0  0  0  0  0
   25.2830    4.4140   17.0840 O   0  0  0  0  0  0  0  0  0  0  0  0
   26.7340    6.2010   17.6910 O   0  0  0  0  0  0  0  0  0  0  0  0
   26.7090    6.2570   17.6050 O   0  0  0  0  0  0  0  0  0  0  0  0
   24.9030    7.4540   15.8330 C   0  0  0  0  0  0  0  0  0  0  0  0
   24.9490    7.4470   15.6940 C   0  0  0  0  0  0  0  0  0  0  0  0
   25.2100    8.7350   15.2830 C   0  0  0  0  0  0  0  0  0  0  0  0
   25.2440    8.6920   15.0700 C   0  0  0  0  0  0  0  0  0  0  0  0
   23.8260    7.3360   16.7810 C   0  0  0  0  0  0  0  0  0  0  0  0
   23.8970    7.3810   16.6690 C   0  0  0  0  0  0  0  0  0  0  0  0
   23.0920    8.4970   17.1610 C   0  0  0  0  0  0  0  0  0  0  0  0
   23.1660    8.5560   16.9950 C   0  0  0  0  0  0  0  0  0  0  0  0
   23.4120    9.7620   16.6080 C   0  0  0  0  0  0  0  0  0  0  0  0
   23.4670    9.7860   16.3650 C   0  0  0  0  0  0  0  0  0  0  0  0
   24.4690    9.8820   15.6670 C   0  0  0  0  0  0  0  0  0  0  0  0
   24.5050    9.8550   15.4020 C   0  0  0  0  0  0  0  0  0  0  0  0
  2  3  1  0  0  0  0
  5  7  2  0  0  0  0
  6  8  2  0  0  0  0
 11 33  1  0  0  0  0
 11 10  1  0  0  0  0
 12 34  1  0  0  0  0
 13 15  1  0  0  0  0
 13 21  2  0  0  0  0
 14 16  1  0  0  0  0
 14 22  2  0  0  0  0
 15 17  2  0  0  0  0
 16 18  2  0  0  0  0
 17 19  1  0  0  0  0
 18 20  1  0  0  0  0
 19 21  1  0  0  0  0
 19 14  1  1  0  0  0
 20 22  1  0  0  0  0
 21 23  1  0  0  0  0
 22 24  1  0  0  0  0
 23 25  1  0  0  0  0
 24 26  1  0  0  0  0
 25 27  2  0  0  0  0
 25 29  1  0  0  0  0
 26 28  2  0  0  0  0
 26 30  1  0  0  0  0
 31 29  1  1  0  0  0
 31 33  1  0  0  0  0
 31 39  1  0  0  0  0
 32 30  1  1  0  0  0
 32 34  1  0  0  0  0
 32 40  1  0  0  0  0
 33 35  1  0  0  0  0
 33 37  1  0  0  0  0
 34 36  1  0  0  0  0
 34 38  1  0  0  0  0
 39 41  2  0  0  0  0
 39 43  1  0  0  0  0
 40 42  2  0  0  0  0
 40 44  1  0  0  0  0
 41 49  1  0  0  0  0
 42 50  1  0  0  0  0
 43 45  2  0  0  0  0
 44 46  2  0  0  0  0
 45 47  1  0  0  0  0
 46 48  1  0  0  0  0
 47 49  2  0  0  0  0
 48 50  2  0  0  0  0
M  END
>  <HEADER>
    HYDROLASE                               03-OCT-02   1MY8              

>  <TITLE>
    AMPC BETA-LACTAMASE IN COMPLEX WITH AN                                
   2 M.CARBOXYPHENYLGLYCYLBORONIC ACID BEARING THE CEPHALOTHIN            
   3 R1 SIDE CHAIN                                                        

>  <COMPND>
    MOL_ID: 1;                                                            
   2 MOLECULE: BETA-LACTAMASE;                                            
   3 CHAIN: A, B;                                                         
   4 SYNONYM: CEPHALOSPORINASE;                                           
   5 EC: 3.5.2.6;                                                         
   6 ENGINEERED: YES                                                      

>  <SOURCE>
    MOL_ID: 1;                                                            
   2 ORGANISM_SCIENTIFIC: ESCHERICHIA COLI;                               
   3 ORGANISM_TAXID: 562;                                                 
   4 GENE: AMPC;                                                          
   5 EXPRESSION_SYSTEM: ESCHERICHIA COLI K12;                             
   6 EXPRESSION_SYSTEM_TAXID: 83333;                                      
   7 EXPRESSION_SYSTEM_STRAIN: K12;                                       
   8 EXPRESSION_SYSTEM_VECTOR_TYPE: PLASMID;                              
   9 EXPRESSION_SYSTEM_PLASMID: POGO295                                   

>  <KEYWDS>
    AMPC, BETA-LACTAMASE, CEPHALOSPORINASE, SERINE HYDROLASE              

>  <EXPDTA>
    X-RAY DIFFRACTION                                                     

>  <AUTHOR>
    F.MORANDI,E.CASELLI,S.MORANDI,P.J.FOCIA,J.BLAZQUEZ,                   
   2 B.K.SHOICHET,F.PRATI                                                 

>  <REVDAT>
   2   24-FEB-09 1MY8    1       VERSN                                    
   1   04-MAR-03 1MY8    0                                                

>  <JRNL>
      AUTH   F.MORANDI,E.CASELLI,S.MORANDI,P.J.FOCIA,J.BLAZQUEZ,          
      AUTH 2 B.K.SHOICHET,F.PRATI                                         
      TITL   NANOMOLAR INHIBITORS OF AMPC BETA-LACTAMASE.                 
      REF    J.AM.CHEM.SOC.                V. 125   685 2003              
      REFN                   ISSN 0002-7863                               
      PMID   12526668                                                     
      DOI    10.1021/JA0288338                                            

>  <REMARK>
   1                                                                      
   2                                                                      
   2 RESOLUTION.    1.72 ANGSTROMS.                                       
   3                                                                      
   3 REFINEMENT.                                                          
   3   PROGRAM     : CNS 1.0                                              
   3   AUTHORS     : BRUNGER,ADAMS,CLORE,DELANO,GROS,GROSSE-              
   3               : KUNSTLEVE,JIANG,KUSZEWSKI,NILGES, PANNU,             
   3               : READ,RICE,SIMONSON,WARREN                            
   3                                                                      
   3  REFINEMENT TARGET : NULL                                            
   3                                                                      
   3  DATA USED IN REFINEMENT.                                            
   3   RESOLUTION RANGE HIGH (ANGSTROMS) : 1.72                           
   3   RESOLUTION RANGE LOW  (ANGSTROMS) : 20.00                          
   3   DATA CUTOFF            (SIGMA(F)) : 0.000                          
   3   DATA CUTOFF HIGH         (ABS(F)) : NULL                           
   3   DATA CUTOFF LOW          (ABS(F)) : NULL                           
   3   COMPLETENESS (WORKING+TEST)   (%) : 98.3                           
   3   NUMBER OF REFLECTIONS             : 81560                          
   3                                                                      
   3  FIT TO DATA USED IN REFINEMENT.                                     
   3   CROSS-VALIDATION METHOD          : THROUGHOUT                      
   3   FREE R VALUE TEST SET SELECTION  : RANDOM                          
   3   R VALUE            (WORKING SET) : 0.167                           
   3   FREE R VALUE                     : 0.189                           
   3   FREE R VALUE TEST SET SIZE   (%) : 3.100                           
   3   FREE R VALUE TEST SET COUNT      : 2537                            
   3   ESTIMATED ERROR OF FREE R VALUE  : NULL                            
   3                                                                      
   3  FIT IN THE HIGHEST RESOLUTION BIN.                                  
   3   TOTAL NUMBER OF BINS USED           : NULL                         
   3   BIN RESOLUTION RANGE HIGH       (A) : NULL                         
   3   BIN RESOLUTION RANGE LOW        (A) : NULL                         
   3   BIN COMPLETENESS (WORKING+TEST) (%) : NULL                         
   3   REFLECTIONS IN BIN    (WORKING SET) : NULL                         
   3   BIN R VALUE           (WORKING SET) : NULL                         
   3   BIN FREE R VALUE                    : NULL                         
   3   BIN FREE R VALUE TEST SET SIZE  (%) : NULL                         
   3   BIN FREE R VALUE TEST SET COUNT     : NULL                         
   3   ESTIMATED ERROR OF BIN FREE R VALUE : NULL                         
   3                                                                      
   3  NUMBER OF NON-HYDROGEN ATOMS USED IN REFINEMENT.                    
   3   PROTEIN ATOMS            : 5606                                    
   3   NUCLEIC ACID ATOMS       : 0                                       
   3   HETEROGEN ATOMS          : 62                                      
   3   SOLVENT ATOMS            : 588                                     
   3                                                                      
   3  B VALUES.                                                           
   3   FROM WILSON PLOT           (A**2) : NULL                           
   3   MEAN B VALUE      (OVERALL, A**2) : NULL                           
   3   OVERALL ANISOTROPIC B VALUE.                                       
   3    B11 (A**2) : -2.39400                                             
   3    B22 (A**2) : 0.46600                                              
   3    B33 (A**2) : 1.92800                                              
   3    B12 (A**2) : 0.00000                                              
   3    B13 (A**2) : -1.91800                                             
   3    B23 (A**2) : 0.00000                                              
   3                                                                      
   3  ESTIMATED COORDINATE ERROR.                                         
   3   ESD FROM LUZZATI PLOT        (A) : NULL                            
   3   ESD FROM SIGMAA              (A) : NULL                            
   3   LOW RESOLUTION CUTOFF        (A) : NULL                            
   3                                                                      
   3  CROSS-VALIDATED ESTIMATED COORDINATE ERROR.                         
   3   ESD FROM C-V LUZZATI PLOT    (A) : NULL                            
   3   ESD FROM C-V SIGMAA          (A) : NULL                            
   3                                                                      
   3  RMS DEVIATIONS FROM IDEAL VALUES.                                   
   3   BOND LENGTHS                 (A) : 0.013                           
   3   BOND ANGLES            (DEGREES) : 1.75                            
   3   DIHEDRAL ANGLES        (DEGREES) : NULL                            
   3   IMPROPER ANGLES        (DEGREES) : NULL                            
   3                                                                      
   3  ISOTROPIC THERMAL MODEL : NULL                                      
   3                                                                      
   3  ISOTROPIC THERMAL FACTOR RESTRAINTS.    RMS    SIGMA                
   3   MAIN-CHAIN BOND              (A**2) : NULL  ; NULL                 
   3   MAIN-CHAIN ANGLE             (A**2) : NULL  ; NULL                 
   3   SIDE-CHAIN BOND              (A**2) : NULL  ; NULL                 
   3   SIDE-CHAIN ANGLE             (A**2) : NULL  ; NULL                 
   3                                                                      
   3  BULK SOLVENT MODELING.                                              
   3   METHOD USED : NULL                                                 
   3   KSOL        : NULL                                                 
   3   BSOL        : NULL                                                 
   3                                                                      
   3  NCS MODEL : NULL                                                    
   3                                                                      
   3  NCS RESTRAINTS.                         RMS   SIGMA/WEIGHT          
   3   GROUP  1  POSITIONAL            (A) : NULL  ; NULL                 
   3   GROUP  1  B-FACTOR           (A**2) : NULL  ; NULL                 
   3                                                                      
   3  PARAMETER FILE  1  : PROTEIN_REP.PARAM                              
   3  PARAMETER FILE  2  : DNA-RNA_REP.PARAM                              
   3  PARAMETER FILE  3  : WATER_REP.PARAM                                
   3  PARAMETER FILE  4  : ION.PARAM                                      
   3  PARAMETER FILE  5  : SM3301.PAR                                     
   3  PARAMETER FILE  6  : NULL                                           
   3  TOPOLOGY FILE  1   : PROTEIN_TOP                                    
   3  TOPOLOGY FILE  2   : DNA-RNA.TOP                                    
   3  TOPOLOGY FILE  3   : WATER.TOP                                      
   3  TOPOLOGY FILE  4   : ION.TOP                                        
   3  TOPOLOGY FILE  5   : SM3301.TOP                                     
   3  TOPOLOGY FILE  6   : NULL                                           
   3                                                                      
   3  OTHER REFINEMENT REMARKS: NULL                                      
   4                                                                      
   4 1MY8 COMPLIES WITH FORMAT V. 3.15, 01-DEC-08                         
 100                                                                      
 100 THIS ENTRY HAS BEEN PROCESSED BY RCSB ON 24-OCT-02.                  
 100 THE RCSB ID CODE IS RCSB017305.                                      
 200                                                                      
 200 EXPERIMENTAL DETAILS                                                 
 200  EXPERIMENT TYPE                : X-RAY DIFFRACTION                  
 200  DATE OF DATA COLLECTION        : 12-JUN-02                          
 200  TEMPERATURE           (KELVIN) : 100                                
 200  PH                             : 8.7                                
 200  NUMBER OF CRYSTALS USED        : 1                                  
 200                                                                      
 200  SYNCHROTRON              (Y/N) : Y                                  
 200  RADIATION SOURCE               : APS                                
 200  BEAMLINE                       : 5ID-B                              
 200  X-RAY GENERATOR MODEL          : NULL                               
 200  MONOCHROMATIC OR LAUE    (M/L) : M                                  
 200  WAVELENGTH OR RANGE        (A) : 1.0                                
 200  MONOCHROMATOR                  : MIRRORS                            
 200  OPTICS                         : NULL                               
 200                                                                      
 200  DETECTOR TYPE                  : CCD                                
 200  DETECTOR MANUFACTURER          : MARRESEARCH                        
 200  INTENSITY-INTEGRATION SOFTWARE : DENZO                              
 200  DATA SCALING SOFTWARE          : SCALEPACK                          
 200                                                                      
 200  NUMBER OF UNIQUE REFLECTIONS   : 82138                              
 200  RESOLUTION RANGE HIGH      (A) : 1.720                              
 200  RESOLUTION RANGE LOW       (A) : 20.000                             
 200  REJECTION CRITERIA  (SIGMA(I)) : -3.000                             
 200                                                                      
 200 OVERALL.                                                             
 200  COMPLETENESS FOR RANGE     (%) : 99.0                               
 200  DATA REDUNDANCY                : 4.270                              
 200  R MERGE                    (I) : 0.04000                            
 200  R SYM                      (I) : NULL                               
 200  <I/SIGMA(I)> FOR THE DATA SET  : 29.9900                            
 200                                                                      
 200 IN THE HIGHEST RESOLUTION SHELL.                                     
 200  HIGHEST RESOLUTION SHELL, RANGE HIGH (A) : 1.72                     
 200  HIGHEST RESOLUTION SHELL, RANGE LOW  (A) : 1.76                     
 200  COMPLETENESS FOR SHELL     (%) : 96.0                               
 200  DATA REDUNDANCY IN SHELL       : NULL                               
 200  R MERGE FOR SHELL          (I) : 0.12000                            
 200  R SYM FOR SHELL            (I) : NULL                               
 200  <I/SIGMA(I)> FOR SHELL         : 11.230                             
 200                                                                      
 200 DIFFRACTION PROTOCOL: SINGLE WAVELENGTH                              
 200 METHOD USED TO DETERMINE THE STRUCTURE: MOLECULAR REPLACEMENT        
 200 SOFTWARE USED: CNS                                                   
 200 STARTING MODEL: PDB ENTRY 1FSY                                       
 200                                                                      
 200 REMARK: NULL                                                         
 280                                                                      
 280 CRYSTAL                                                              
 280 SOLVENT CONTENT, VS   (%): 45.28                                     
 280 MATTHEWS COEFFICIENT, VM (ANGSTROMS**3/DA): 2.27                     
 280                                                                      
 280 CRYSTALLIZATION CONDITIONS: POTASSIUM PHOSPHATE BUFFER, PH 8.7,      
 280  VAPOR DIFFUSION, HANGING DROP, TEMPERATURE 295K                     
 290                                                                      
 290 CRYSTALLOGRAPHIC SYMMETRY                                            
 290 SYMMETRY OPERATORS FOR SPACE GROUP: C 1 2 1                          
 290                                                                      
 290      SYMOP   SYMMETRY                                                
 290     NNNMMM   OPERATOR                                                
 290       1555   X,Y,Z                                                   
 290       2555   -X,Y,-Z                                                 
 290       3555   X+1/2,Y+1/2,Z                                           
 290       4555   -X+1/2,Y+1/2,-Z                                         
 290                                                                      
 290     WHERE NNN -> OPERATOR NUMBER                                     
 290           MMM -> TRANSLATION VECTOR                                  
 290                                                                      
 290 CRYSTALLOGRAPHIC SYMMETRY TRANSFORMATIONS                            
 290 THE FOLLOWING TRANSFORMATIONS OPERATE ON THE ATOM/HETATM             
 290 RECORDS IN THIS ENTRY TO PRODUCE CRYSTALLOGRAPHICALLY                
 290 RELATED MOLECULES.                                                   
 290   SMTRY1   1  1.000000  0.000000  0.000000        0.00000            
 290   SMTRY2   1  0.000000  1.000000  0.000000        0.00000            
 290   SMTRY3   1  0.000000  0.000000  1.000000        0.00000            
 290   SMTRY1   2 -1.000000  0.000000  0.000000        0.00000            
 290   SMTRY2   2  0.000000  1.000000  0.000000        0.00000            
 290   SMTRY3   2  0.000000  0.000000 -1.000000        0.00000            
 290   SMTRY1   3  1.000000  0.000000  0.000000       59.10250            
 290   SMTRY2   3  0.000000  1.000000  0.000000       38.34950            
 290   SMTRY3   3  0.000000  0.000000  1.000000        0.00000            
 290   SMTRY1   4 -1.000000  0.000000  0.000000       59.10250            
 290   SMTRY2   4  0.000000  1.000000  0.000000       38.34950            
 290   SMTRY3   4  0.000000  0.000000 -1.000000        0.00000            
 290                                                                      
 290 REMARK: NULL                                                         
 300                                                                      
 300 BIOMOLECULE: 1, 2                                                    
 300 SEE REMARK 350 FOR THE AUTHOR PROVIDED AND/OR PROGRAM                
 300 GENERATED ASSEMBLY INFORMATION FOR THE STRUCTURE IN                  
 300 THIS ENTRY. THE REMARK MAY ALSO PROVIDE INFORMATION ON               
 300 BURIED SURFACE AREA.                                                 
 350                                                                      
 350 COORDINATES FOR A COMPLETE MULTIMER REPRESENTING THE KNOWN           
 350 BIOLOGICALLY SIGNIFICANT OLIGOMERIZATION STATE OF THE                
 350 MOLECULE CAN BE GENERATED BY APPLYING BIOMT TRANSFORMATIONS          
 350 GIVEN BELOW.  BOTH NON-CRYSTALLOGRAPHIC AND                          
 350 CRYSTALLOGRAPHIC OPERATIONS ARE GIVEN.                               
 350                                                                      
 350 BIOMOLECULE: 1                                                       
 350 AUTHOR DETERMINED BIOLOGICAL UNIT: MONOMERIC                         
 350 APPLY THE FOLLOWING TO CHAINS: A                                     
 350   BIOMT1   1  1.000000  0.000000  0.000000        0.00000            
 350   BIOMT2   1  0.000000  1.000000  0.000000        0.00000            
 350   BIOMT3   1  0.000000  0.000000  1.000000        0.00000            
 350                                                                      
 350 BIOMOLECULE: 2                                                       
 350 AUTHOR DETERMINED BIOLOGICAL UNIT: MONOMERIC                         
 350 APPLY THE FOLLOWING TO CHAINS: B                                     
 350   BIOMT1   1  1.000000  0.000000  0.000000        0.00000            
 350   BIOMT2   1  0.000000  1.000000  0.000000        0.00000            
 350   BIOMT3   1  0.000000  0.000000  1.000000        0.00000            
 500                                                                      
 500 GEOMETRY AND STEREOCHEMISTRY                                         
 500 SUBTOPIC: CLOSE CONTACTS IN SAME ASYMMETRIC UNIT                     
 500                                                                      
 500 THE FOLLOWING ATOMS ARE IN CLOSE CONTACT.                            
 500                                                                      
 500  ATM1  RES C  SSEQI   ATM2  RES C  SSEQI           DISTANCE          
 500   OD1  ASP B    87     OH   TYR B    92              2.14            
 500                                                                      
 500 REMARK: NULL                                                         
 500                                                                      
 500 GEOMETRY AND STEREOCHEMISTRY                                         
 500 SUBTOPIC: COVALENT BOND ANGLES                                       
 500                                                                      
 500 THE STEREOCHEMICAL PARAMETERS OF THE FOLLOWING RESIDUES              
 500 HAVE VALUES WHICH DEVIATE FROM EXPECTED VALUES BY MORE               
 500 THAN 6*RMSD (M=MODEL NUMBER; RES=RESIDUE NAME; C=CHAIN               
 500 IDENTIFIER; SSEQ=SEQUENCE NUMBER; I=INSERTION CODE).                 
 500                                                                      
 500 STANDARD TABLE:                                                      
 500 FORMAT: (10X,I3,1X,A3,1X,A1,I4,A1,3(1X,A4,2X),12X,F5.1)              
 500                                                                      
 500 EXPECTED VALUES PROTEIN: ENGH AND HUBER, 1999                        
 500 EXPECTED VALUES NUCLEIC ACID: CLOWNEY ET AL 1996                     
 500                                                                      
 500  M RES CSSEQI ATM1   ATM2   ATM3                                     
 500    ASP A 217   CB  -  CG  -  OD1 ANGL. DEV. =   5.5 DEGREES          
 500                                                                      
 500 REMARK: NULL                                                         
 500                                                                      
 500 GEOMETRY AND STEREOCHEMISTRY                                         
 500 SUBTOPIC: TORSION ANGLES                                             
 500                                                                      
 500 TORSION ANGLES OUTSIDE THE EXPECTED RAMACHANDRAN REGIONS:            
 500 (M=MODEL NUMBER; RES=RESIDUE NAME; C=CHAIN IDENTIFIER;               
 500 SSEQ=SEQUENCE NUMBER; I=INSERTION CODE).                             
 500                                                                      
 500 STANDARD TABLE:                                                      
 500 FORMAT:(10X,I3,1X,A3,1X,A1,I4,A1,4X,F7.2,3X,F7.2)                    
 500                                                                      
 500 EXPECTED VALUES: GJ KLEYWEGT AND TA JONES (1996). PHI/PSI-           
 500 CHOLOGY: RAMACHANDRAN REVISITED. STRUCTURE 4, 1395 - 1400            
 500                                                                      
 500  M RES CSSEQI        PSI       PHI                                   
 500    LYS A 126      -61.22   -138.18                                   
 500    SER A 154      -65.08    -90.13                                   
 500    VAL A 178      -58.50   -122.34                                   
 500    TYR A 221       22.36   -158.84                                   
 500    LYS A 290       48.06    -94.94                                   
 500    ILE A 291      -50.38   -136.18                                   
 500    ASN A 341       43.50    -99.68                                   
 500    LYS B 126      -56.60   -126.82                                   
 500    SER B 154      -65.42    -90.77                                   
 500    VAL B 178      -57.64   -122.21                                   
 500    TYR B 221       25.16   -161.20                                   
 500    ASN B 341       42.54    -98.53                                   
 500                                                                      
 500 REMARK: NULL                                                         
 525                                                                      
 525 SOLVENT                                                              
 525                                                                      
 525 THE SOLVENT MOLECULES HAVE CHAIN IDENTIFIERS THAT                    
 525 INDICATE THE POLYMER CHAIN WITH WHICH THEY ARE MOST                  
 525 CLOSELY ASSOCIATED. THE REMARK LISTS ALL THE SOLVENT                 
 525 MOLECULES WHICH ARE MORE THAN 5A AWAY FROM THE                       
 525 NEAREST POLYMER CHAIN (M = MODEL NUMBER;                             
 525 RES=RESIDUE NAME; C=CHAIN IDENTIFIER; SSEQ=SEQUENCE                  
 525 NUMBER; I=INSERTION CODE):                                           
 525                                                                      
 525  M RES CSSEQI                                                        
 525    HOH A1252        DISTANCE =  5.71 ANGSTROMS                       
 800                                                                      
 800 SITE                                                                 
 800 SITE_IDENTIFIER: AC1                                                 
 800 EVIDENCE_CODE: SOFTWARE                                              
 800 SITE_DESCRIPTION: BINDING SITE FOR RESIDUE PO4 A 965                 
 800 SITE_IDENTIFIER: AC2                                                 
 800 EVIDENCE_CODE: SOFTWARE                                              
 800 SITE_DESCRIPTION: BINDING SITE FOR RESIDUE SM3 A 964                 
 800 SITE_IDENTIFIER: AC3                                                 
 800 EVIDENCE_CODE: SOFTWARE                                              
 800 SITE_DESCRIPTION: BINDING SITE FOR RESIDUE SM3 B 964                 
 900                                                                      
 900 RELATED ENTRIES                                                      
 900 RELATED ID: 1FSY   RELATED DB: PDB                                   
 900 AMPC BETA-LACTAMASE FROM E. COLI COMPLEXED WITH INHIBITOR            
 900 CLOXACILLINBORONIC ACID                                              
 900 RELATED ID: 1KE4   RELATED DB: PDB                                   
 900 BETA-LACTAMASE                                                       
 900 RELATED ID: 1MXO   RELATED DB: PDB                                   
 900 AMPC BETA-LACTAMASE IN COMPLEX WITH AN                               
 900 M.CARBOXYPHENYLGLYCYLBORONIC ACID BEARING THE CEPHALOTHIN            
 900 R1 SIDE CHAIN                                                        

>  <DBREF>
 1MY8 A    4   361  UNP    P00811   AMPC_ECOLI      20    377             
 1MY8 B    4   361  UNP    P00811   AMPC_ECOLI      20    377             

>  <SEQRES>
   1 A  358  ALA PRO GLN GLN ILE ASN ASP ILE VAL HIS ARG THR ILE          
   2 A  358  THR PRO LEU ILE GLU GLN GLN LYS ILE PRO GLY MET ALA          
   3 A  358  VAL ALA VAL ILE TYR GLN GLY LYS PRO TYR TYR PHE THR          
   4 A  358  TRP GLY TYR ALA ASP ILE ALA LYS LYS GLN PRO VAL THR          
   5 A  358  GLN GLN THR LEU PHE GLU LEU GLY SER VAL SER LYS THR          
   6 A  358  PHE THR GLY VAL LEU GLY GLY ASP ALA ILE ALA ARG GLY          
   7 A  358  GLU ILE LYS LEU SER ASP PRO THR THR LYS TYR TRP PRO          
   8 A  358  GLU LEU THR ALA LYS GLN TRP ASN GLY ILE THR LEU LEU          
   9 A  358  HIS LEU ALA THR TYR THR ALA GLY GLY LEU PRO LEU GLN          
  10 A  358  VAL PRO ASP GLU VAL LYS SER SER SER ASP LEU LEU ARG          
  11 A  358  PHE TYR GLN ASN TRP GLN PRO ALA TRP ALA PRO GLY THR          
  12 A  358  GLN ARG LEU TYR ALA ASN SER SER ILE GLY LEU PHE GLY          
  13 A  358  ALA LEU ALA VAL LYS PRO SER GLY LEU SER PHE GLU GLN          
  14 A  358  ALA MET GLN THR ARG VAL PHE GLN PRO LEU LYS LEU ASN          
  15 A  358  HIS THR TRP ILE ASN VAL PRO PRO ALA GLU GLU LYS ASN          
  16 A  358  TYR ALA TRP GLY TYR ARG GLU GLY LYS ALA VAL HIS VAL          
  17 A  358  SER PRO GLY ALA LEU ASP ALA GLU ALA TYR GLY VAL LYS          
  18 A  358  SER THR ILE GLU ASP MET ALA ARG TRP VAL GLN SER ASN          
  19 A  358  LEU LYS PRO LEU ASP ILE ASN GLU LYS THR LEU GLN GLN          
  20 A  358  GLY ILE GLN LEU ALA GLN SER ARG TYR TRP GLN THR GLY          
  21 A  358  ASP MET TYR GLN GLY LEU GLY TRP GLU MET LEU ASP TRP          
  22 A  358  PRO VAL ASN PRO ASP SER ILE ILE ASN GLY SER ASP ASN          
  23 A  358  LYS ILE ALA LEU ALA ALA ARG PRO VAL LYS ALA ILE THR          
  24 A  358  PRO PRO THR PRO ALA VAL ARG ALA SER TRP VAL HIS LYS          
  25 A  358  THR GLY ALA THR GLY GLY PHE GLY SER TYR VAL ALA PHE          
  26 A  358  ILE PRO GLU LYS GLU LEU GLY ILE VAL MET LEU ALA ASN          
  27 A  358  LYS ASN TYR PRO ASN PRO ALA ARG VAL ASP ALA ALA TRP          
  28 A  358  GLN ILE LEU ASN ALA LEU GLN                                  
   1 B  358  ALA PRO GLN GLN ILE ASN ASP ILE VAL HIS ARG THR ILE          
   2 B  358  THR PRO LEU ILE GLU GLN GLN LYS ILE PRO GLY MET ALA          
   3 B  358  VAL ALA VAL ILE TYR GLN GLY LYS PRO TYR TYR PHE THR          
   4 B  358  TRP GLY TYR ALA ASP ILE ALA LYS LYS GLN PRO VAL THR          
   5 B  358  GLN GLN THR LEU PHE GLU LEU GLY SER VAL SER LYS THR          
   6 B  358  PHE THR GLY VAL LEU GLY GLY ASP ALA ILE ALA ARG GLY          
   7 B  358  GLU ILE LYS LEU SER ASP PRO THR THR LYS TYR TRP PRO          
   8 B  358  GLU LEU THR ALA LYS GLN TRP ASN GLY ILE THR LEU LEU          
   9 B  358  HIS LEU ALA THR TYR THR ALA GLY GLY LEU PRO LEU GLN          
  10 B  358  VAL PRO ASP GLU VAL LYS SER SER SER ASP LEU LEU ARG          
  11 B  358  PHE TYR GLN ASN TRP GLN PRO ALA TRP ALA PRO GLY THR          
  12 B  358  GLN ARG LEU TYR ALA ASN SER SER ILE GLY LEU PHE GLY          
  13 B  358  ALA LEU ALA VAL LYS PRO SER GLY LEU SER PHE GLU GLN          
  14 B  358  ALA MET GLN THR ARG VAL PHE GLN PRO LEU LYS LEU ASN          
  15 B  358  HIS THR TRP ILE ASN VAL PRO PRO ALA GLU GLU LYS ASN          
  16 B  358  TYR ALA TRP GLY TYR ARG GLU GLY LYS ALA VAL HIS VAL          
  17 B  358  SER PRO GLY ALA LEU ASP ALA GLU ALA TYR GLY VAL LYS          
  18 B  358  SER THR ILE GLU ASP MET ALA ARG TRP VAL GLN SER ASN          
  19 B  358  LEU LYS PRO LEU ASP ILE ASN GLU LYS THR LEU GLN GLN          
  20 B  358  GLY ILE GLN LEU ALA GLN SER ARG TYR TRP GLN THR GLY          
  21 B  358  ASP MET TYR GLN GLY LEU GLY TRP GLU MET LEU ASP TRP          
  22 B  358  PRO VAL ASN PRO ASP SER ILE ILE ASN GLY SER ASP ASN          
  23 B  358  LYS ILE ALA LEU ALA ALA ARG PRO VAL LYS ALA ILE THR          
  24 B  358  PRO PRO THR PRO ALA VAL ARG ALA SER TRP VAL HIS LYS          
  25 B  358  THR GLY ALA THR GLY GLY PHE GLY SER TYR VAL ALA PHE          
  26 B  358  ILE PRO GLU LYS GLU LEU GLY ILE VAL MET LEU ALA ASN          
  27 B  358  LYS ASN TYR PRO ASN PRO ALA ARG VAL ASP ALA ALA TRP          
  28 B  358  GLN ILE LEU ASN ALA LEU GLN                                  

>  <HET>
 PO4  A 965       5                                                       
 SM3  A 964      38                                                       
 SM3  B 964      19                                                       

>  <HETNAM>
     PO4 PHOSPHATE ION                                                    
     SM3 (1R)-1-(2-THIENYLACETYLAMINO)-1-PHENYLMETHYLBORONIC              
   2 SM3  ACID                                                            

>  <FORMUL>
   3  PO4    O4 P 3-                                                      
   4  SM3    2(C13 H14 B N O3 S)                                          
   6  HOH   *588(H2 O)                                                    

>  <HELIX>
   1   1 PRO A    5  LYS A   24  1                                  20    
   2   2 VAL A   65  ARG A   80  1                                  16    
   3   3 PRO A   88  TYR A   92  5                                   5    
   4   4 ALA A   98  ASN A  102  5                                   5    
   5   5 THR A  105  THR A  111  1                                   7    
   6   6 SER A  127  TRP A  138  1                                  12    
   7   7 ALA A  151  VAL A  163  1                                  13    
   8   8 SER A  169  VAL A  178  1                                  10    
   9   9 PRO A  192  TYR A  199  5                                   8    
  10  10 LEU A  216  TYR A  221  1                                   6    
  11  11 THR A  226  LYS A  239  1                                  14    
  12  12 PRO A  240  ILE A  243  5                                   4    
  13  13 GLU A  245  GLN A  256  1                                  12    
  14  14 ASN A  279  ASP A  288  1                                  10    
  15  15 ASP A  288  LEU A  293  1                                   6    
  16  16 PRO A  330  GLU A  333  5                                   4    
  17  17 PRO A  345  GLN A  361  1                                  17    
  18  18 PRO B    5  LYS B   24  1                                  20    
  19  19 VAL B   65  ARG B   80  1                                  16    
  20  20 PRO B   88  TRP B   93  1                                   6    
  21  21 ALA B   98  ASN B  102  5                                   5    
  22  22 THR B  105  THR B  111  1                                   7    
  23  23 SER B  127  TRP B  138  1                                  12    
  24  24 ALA B  151  VAL B  163  1                                  13    
  25  25 SER B  169  VAL B  178  1                                  10    
  26  26 PRO B  192  TYR B  199  5                                   8    
  27  27 LEU B  216  GLY B  222  1                                   7    
  28  28 THR B  226  LYS B  239  1                                  14    
  29  29 PRO B  240  ILE B  243  5                                   4    
  30  30 GLU B  245  GLN B  256  1                                  12    
  31  31 ASN B  279  SER B  287  1                                   9    
  32  32 ASP B  288  LEU B  293  1                                   6    
  33  33 PRO B  330  GLU B  333  5                                   4    
  34  34 PRO B  345  GLN B  361  1                                  17    

>  <SHEET>
   1   A10 GLN A  52  PRO A  53  0                                        
   2   A10 LYS A  37  ASP A  47 -1  N  ASP A  47   O  GLN A  52           
   3   A10 GLY A  27  TYR A  34 -1  N  TYR A  34   O  LYS A  37           
   4   A10 LEU A 334  ALA A 340 -1  O  LEU A 339   N  ALA A  29           
   5   A10 GLY A 323  ILE A 329 -1  N  TYR A 325   O  MET A 338           
   6   A10 SER A 311  ALA A 318 -1  N  GLY A 317   O  SER A 324           
   7   A10 GLU A 272  ASP A 275 -1  N  GLU A 272   O  HIS A 314           
   8   A10 MET A 265  GLN A 267 -1  N  TYR A 266   O  MET A 273           
   9   A10 ARG A 258  THR A 262 -1  N  THR A 262   O  MET A 265           
  10   A10 LYS A 299  THR A 305 -1  O  THR A 305   N  ARG A 258           
   1   B 2 PHE A  60  GLU A  61  0                                        
   2   B 2 LYS A 224  SER A 225 -1  O  SER A 225   N  PHE A  60           
   1   C 2 GLN A 147  ARG A 148  0                                        
   2   C 2 ARG A 296  PRO A 297 -1  O  ARG A 296   N  ARG A 148           
   1   D 2 GLY A 202  ARG A 204  0                                        
   2   D 2 LYS A 207  VAL A 209 -1  O  VAL A 209   N  GLY A 202           
   1   E10 GLN B  52  PRO B  53  0                                        
   2   E10 LYS B  37  ASP B  47 -1  N  ASP B  47   O  GLN B  52           
   3   E10 GLY B  27  TYR B  34 -1  N  TYR B  34   O  LYS B  37           
   4   E10 LEU B 334  ALA B 340 -1  O  GLY B 335   N  ILE B  33           
   5   E10 GLY B 323  ILE B 329 -1  N  TYR B 325   O  MET B 338           
   6   E10 SER B 311  ALA B 318 -1  N  GLY B 317   O  SER B 324           
   7   E10 GLU B 272  ASP B 275 -1  N  GLU B 272   O  HIS B 314           
   8   E10 MET B 265  GLN B 267 -1  N  TYR B 266   O  MET B 273           
   9   E10 ARG B 258  THR B 262 -1  N  THR B 262   O  MET B 265           
  10   E10 LYS B 299  THR B 305 -1  O  THR B 305   N  ARG B 258           
   1   F 2 PHE B  60  GLU B  61  0                                        
   2   F 2 LYS B 224  SER B 225 -1  O  SER B 225   N  PHE B  60           
   1   G 2 GLN B 147  ARG B 148  0                                        
   2   G 2 ARG B 296  PRO B 297 -1  O  ARG B 296   N  ARG B 148           
   1   H 2 GLY B 202  ARG B 204  0                                        
   2   H 2 LYS B 207  VAL B 209 -1  O  VAL B 209   N  GLY B 202           

>  <LINK>
       OG ASER A  64                 B  ASM3 A 964     1555   1555  1.66  
       OG BSER A  64                 B  BSM3 A 964     1555   1555  1.59  
       OG  SER B  64                 B   SM3 B 964     1555   1555  1.59  

>  <CISPEP>
   1 TRP A  276    PRO A  277          0         0.30                     
   2 THR A  302    PRO A  303          0        -0.54                     
   3 TRP B  276    PRO B  277          0         0.47                     
   4 THR B  302    PRO B  303          0         0.05                     

>  <SITE>
   1 AC1  6 ARG A 133  HIS A 186  HOH A1087  HOH A1104                    
   2 AC1  6 HOH A1162  LYS B 290                                          
   1 AC2 12 SER A  64  LEU A 119  TYR A 150  ASN A 152                    
   2 AC2 12 TYR A 221  GLY A 317  ALA A 318  THR A 319                    
   3 AC2 12 GLY A 320  HOH A1059  HOH A1123  HOH A1125                    
   1 AC3 12 SER B  64  GLN B 120  TYR B 150  ASN B 152                    
   2 AC3 12 TYR B 221  GLY B 317  ALA B 318  THR B 319                    
   3 AC3 12 GLY B 320  HOH B1087  HOH B1219  HOH B1260                    

>  <ORIGX1>
      1.000000  0.000000  0.000000        0.00000                         

>  <ORIGX2>
      0.000000  1.000000  0.000000        0.00000                         

>  <ORIGX3>
      0.000000  0.000000  1.000000        0.00000                         

>  <SCALE1>
      0.008460  0.000000  0.004183        0.00000                         

>  <SCALE2>
      0.000000  0.013038  0.000000        0.00000                         

>  <SCALE3>
      0.000000  0.000000  0.011423        0.00000                         

>  <MASTER>
      319    0    3   34   32    0    8    6 6256    2   65   56          

$$$$
