start_structures/Ligand_Substrate/Ligand_Complex_Stripped/SM4_2RCX.pdb
 OpenBabel08222315203D

 30 31  0  0  1  0  0  0  0  0999 V2000
   27.0380    1.5890   16.0550 N   0  0  0  0  0  0  0  0  0  0  0  0
   28.4240    2.0280   16.3680 C   0  0  2  0  0  0  0  0  0  0  0  0
   29.2980    1.1370   17.2310 C   0  0  0  0  0  0  0  0  0  0  0  0
   30.5010    1.4000   17.3450 O   0  0  0  0  0  0  0  0  0  0  0  0
   28.4270    3.3940   17.0360 C   0  0  0  0  0  0  0  0  0  0  0  0
   27.8990    4.2990   16.0970 O   0  0  0  0  0  0  0  0  0  0  0  0
   19.9790    8.9750   17.9530 O   0  0  0  0  0  0  0  0  0  0  0  0
   20.5380    7.8840   18.1810 C   0  0  0  0  0  0  0  0  0  0  0  0
   20.0410    7.0750   18.9750 O   0  0  0  0  0  0  0  0  0  0  0  0
   21.8050    7.5480   17.5030 C   0  0  0  0  0  0  0  0  0  0  0  0
   22.5300    8.5440   16.9920 C   0  0  0  0  0  0  0  0  0  0  0  0
   23.7790    8.3660   16.2240 C   0  0  0  0  0  0  0  0  0  0  0  0
   24.3560    7.1200   15.9620 C   0  0  0  0  0  0  0  0  0  0  0  0
   24.3870    9.5180   15.7540 C   0  0  0  0  0  0  0  0  0  0  0  0
   25.5650    9.4440   15.0320 C   0  0  0  0  0  0  0  0  0  0  0  0
   26.1550    8.2240   14.7600 C   0  0  0  0  0  0  0  0  0  0  0  0
   25.5410    7.0760   15.2190 C   0  0  0  0  0  0  0  0  0  0  0  0
   26.1950    5.8050   14.9360 C   0  0  1  0  0  0  0  0  0  0  0  0
   26.5010    5.2470   16.4040 B   0  0  0  0  0  0  0  0  0  0  0  0
   27.1180    6.1910   17.4580 O   0  0  0  0  0  0  0  0  0  0  0  0
   25.7120    4.0390   16.8950 O   0  0  0  0  0  0  0  0  0  0  0  0
   25.2830    4.9740   14.1740 N   0  0  0  0  0  0  0  0  0  0  0  0
   24.9020    5.3260   12.9530 C   0  0  0  0  0  0  0  0  0  0  0  0
   25.2850    6.3350   12.3570 O   0  0  0  0  0  0  0  0  0  0  0  0
   23.9420    4.3650   12.3230 C   0  0  0  0  0  0  0  0  0  0  0  0
   22.5870    4.9740   12.1220 C   0  0  0  0  0  0  0  0  0  0  0  0
   21.7300    5.0040   11.0350 C   0  0  0  0  0  0  0  0  0  0  0  0
   20.5400    5.6740   11.3230 C   0  0  0  0  0  0  0  0  0  0  0  0
   20.3960    6.1860   12.6050 C   0  0  0  0  0  0  0  0  0  0  0  0
   21.8420    5.7830   13.4560 S   0  0  0  0  0  0  0  0  0  0  0  0
  2  1  1  1  0  0  0
  2  5  1  0  0  0  0
  2  3  1  0  0  0  0
  3  4  2  0  0  0  0
  6 19  1  0  0  0  0
  6  5  1  0  0  0  0
  7  8  2  0  0  0  0
  8  9  1  0  0  0  0
  8 10  1  0  0  0  0
 10 11  2  0  0  0  0
 11 12  1  0  0  0  0
 12 13  2  0  0  0  0
 12 14  1  0  0  0  0
 13 17  1  0  0  0  0
 14 15  2  0  0  0  0
 15 16  1  0  0  0  0
 16 17  2  0  0  0  0
 17 18  1  0  0  0  0
 18 19  1  0  0  0  0
 18 22  1  1  0  0  0
 19 20  1  0  0  0  0
 19 21  1  0  0  0  0
 22 23  1  0  0  0  0
 23 24  2  0  0  0  0
 23 25  1  0  0  0  0
 25 26  1  0  0  0  0
 26 27  2  0  0  0  0
 26 30  1  0  0  0  0
 27 28  1  0  0  0  0
 28 29  2  0  0  0  0
 29 30  1  0  0  0  0
M  END
>  <HEADER>
    HYDROLASE                               20-SEP-07   2RCX              

>  <TITLE>
    AMPC BETA-LACTAMASE IN COMPLEX WITH (1R)-1-(2-THIOPHEN-2-YL-          
   2 ACETYLAMINO)-1-(3-(2-CARBOXYVINYL)-PHENYL) METHYLBORONIC ACID        

>  <COMPND>
    MOL_ID: 1;                                                            
   2 MOLECULE: BETA-LACTAMASE;                                            
   3 CHAIN: A, B;                                                         
   4 SYNONYM: CEPHALOSPORINASE;                                           
   5 EC: 3.5.2.6;                                                         
   6 ENGINEERED: YES                                                      

>  <SOURCE>
    MOL_ID: 1;                                                            
   2 ORGANISM_SCIENTIFIC: ESCHERICHIA COLI;                               
   3 ORGANISM_TAXID: 562;                                                 
   4 GENE: AMPC, AMPA;                                                    
   5 EXPRESSION_SYSTEM: ESCHERICHIA COLI K12;                             
   6 EXPRESSION_SYSTEM_TAXID: 83333;                                      
   7 EXPRESSION_SYSTEM_STRAIN: K12;                                       
   8 EXPRESSION_SYSTEM_VECTOR_TYPE: PLASMID;                              
   9 EXPRESSION_SYSTEM_PLASMID: POGO295                                   

>  <KEYWDS>
    AMPC, BETA-LACTAMASE, CEPHALOSPORINASE, SERINE HYDROLASE, ANTIBIOTIC  
   2 RESISTANCE, PERIPLASM, HYDROLASE                                     

>  <EXPDTA>
    X-RAY DIFFRACTION                                                     

>  <AUTHOR>
    F.MORANDI,S.MORANDI,F.PRATI,B.K.SHOICHET                              

>  <REVDAT>
   4   25-OCT-17 2RCX    1       REMARK                                   
   3   24-FEB-09 2RCX    1       VERSN                                    
   2   25-MAR-08 2RCX    1       JRNL                                     
   1   27-NOV-07 2RCX    0                                                

>  <JRNL>
      AUTH   S.MORANDI,F.MORANDI,E.CASELLI,B.K.SHOICHET,F.PRATI           
      TITL   STRUCTURE-BASED OPTIMIZATION OF CEPHALOTHIN-ANALOGUE BORONIC 
      TITL 2 ACIDS AS BETA-LACTAMASE INHIBITORS                           
      REF    BIOORG.MED.CHEM.              V.  16  1195 2008              
      REFN                   ISSN 0968-0896                               
      PMID   17997318                                                     
      DOI    10.1016/J.BMC.2007.10.075                                    

>  <REMARK>
   2                                                                      
   2 RESOLUTION.    2.00 ANGSTROMS.                                       
   3                                                                      
   3 REFINEMENT.                                                          
   3   PROGRAM     : REFMAC                                               
   3   AUTHORS     : MURSHUDOV,VAGIN,DODSON                               
   3                                                                      
   3    REFINEMENT TARGET : MAXIMUM LIKELIHOOD                            
   3                                                                      
   3  DATA USED IN REFINEMENT.                                            
   3   RESOLUTION RANGE HIGH (ANGSTROMS) : 2.00                           
   3   RESOLUTION RANGE LOW  (ANGSTROMS) : 20.00                          
   3   DATA CUTOFF            (SIGMA(F)) : 0.000                          
   3   COMPLETENESS FOR RANGE        (%) : 99.9                           
   3   NUMBER OF REFLECTIONS             : 53061                          
   3                                                                      
   3  FIT TO DATA USED IN REFINEMENT.                                     
   3   CROSS-VALIDATION METHOD          : THROUGHOUT                      
   3   FREE R VALUE TEST SET SELECTION  : RANDOM                          
   3   R VALUE     (WORKING + TEST SET) : NULL                            
   3   R VALUE            (WORKING SET) : 0.176                           
   3   FREE R VALUE                     : 0.219                           
   3   FREE R VALUE TEST SET SIZE   (%) : 5.100                           
   3   FREE R VALUE TEST SET COUNT      : 2689                            
   3                                                                      
   3  FIT IN THE HIGHEST RESOLUTION BIN.                                  
   3   TOTAL NUMBER OF BINS USED           : 20                           
   3   BIN RESOLUTION RANGE HIGH       (A) : 2.00                         
   3   BIN RESOLUTION RANGE LOW        (A) : 2.05                         
   3   REFLECTION IN BIN     (WORKING SET) : 3632                         
   3   BIN COMPLETENESS (WORKING+TEST) (%) : 99.43                        
   3   BIN R VALUE           (WORKING SET) : 0.2310                       
   3   BIN FREE R VALUE SET COUNT          : 199                          
   3   BIN FREE R VALUE                    : 0.2790                       
   3                                                                      
   3  NUMBER OF NON-HYDROGEN ATOMS USED IN REFINEMENT.                    
   3   PROTEIN ATOMS            : 5600                                    
   3   NUCLEIC ACID ATOMS       : 0                                       
   3   HETEROGEN ATOMS          : 58                                      
   3   SOLVENT ATOMS            : 482                                     
   3                                                                      
   3  B VALUES.                                                           
   3   FROM WILSON PLOT           (A**2) : NULL                           
   3   MEAN B VALUE      (OVERALL, A**2) : 27.93                          
   3   OVERALL ANISOTROPIC B VALUE.                                       
   3    B11 (A**2) : 0.38000                                              
   3    B22 (A**2) : 0.77000                                              
   3    B33 (A**2) : -0.72000                                             
   3    B12 (A**2) : 0.00000                                              
   3    B13 (A**2) : 0.48000                                              
   3    B23 (A**2) : 0.00000                                              
   3                                                                      
   3  ESTIMATED OVERALL COORDINATE ERROR.                                 
   3   ESU BASED ON R VALUE                            (A): 0.175         
   3   ESU BASED ON FREE R VALUE                       (A): 0.155         
   3   ESU BASED ON MAXIMUM LIKELIHOOD                 (A): 0.107         
   3   ESU FOR B VALUES BASED ON MAXIMUM LIKELIHOOD (A**2): 3.777         
   3                                                                      
   3 CORRELATION COEFFICIENTS.                                            
   3   CORRELATION COEFFICIENT FO-FC      : 0.960                         
   3   CORRELATION COEFFICIENT FO-FC FREE : 0.940                         
   3                                                                      
   3  RMS DEVIATIONS FROM IDEAL VALUES        COUNT    RMS    WEIGHT      
   3   BOND LENGTHS REFINED ATOMS        (A):  5824 ; 0.013 ; 0.022       
   3   BOND LENGTHS OTHERS               (A):  NULL ;  NULL ;  NULL       
   3   BOND ANGLES REFINED ATOMS   (DEGREES):  7957 ; 1.482 ; 1.957       
   3   BOND ANGLES OTHERS          (DEGREES):  NULL ;  NULL ;  NULL       
   3   TORSION ANGLES, PERIOD 1    (DEGREES):   716 ; 6.356 ; 5.000       
   3   TORSION ANGLES, PERIOD 2    (DEGREES):   246 ;34.712 ;24.797       
   3   TORSION ANGLES, PERIOD 3    (DEGREES):   913 ;13.616 ;15.000       
   3   TORSION ANGLES, PERIOD 4    (DEGREES):    22 ;18.562 ;15.000       
   3   CHIRAL-CENTER RESTRAINTS       (A**3):   858 ; 0.096 ; 0.200       
   3   GENERAL PLANES REFINED ATOMS      (A):  4480 ; 0.006 ; 0.020       
   3   GENERAL PLANES OTHERS             (A):  NULL ;  NULL ;  NULL       
   3   NON-BONDED CONTACTS REFINED ATOMS (A):  2942 ; 0.204 ; 0.200       
   3   NON-BONDED CONTACTS OTHERS        (A):  NULL ;  NULL ;  NULL       
   3   NON-BONDED TORSION REFINED ATOMS  (A):  4002 ; 0.307 ; 0.200       
   3   NON-BONDED TORSION OTHERS         (A):  NULL ;  NULL ;  NULL       
   3   H-BOND (X...Y) REFINED ATOMS      (A):   498 ; 0.153 ; 0.200       
   3   H-BOND (X...Y) OTHERS             (A):  NULL ;  NULL ;  NULL       
   3   POTENTIAL METAL-ION REFINED ATOMS (A):  NULL ;  NULL ;  NULL       
   3   POTENTIAL METAL-ION OTHERS        (A):  NULL ;  NULL ;  NULL       
   3   SYMMETRY VDW REFINED ATOMS        (A):    49 ; 0.188 ; 0.200       
   3   SYMMETRY VDW OTHERS               (A):  NULL ;  NULL ;  NULL       
   3   SYMMETRY H-BOND REFINED ATOMS     (A):    18 ; 0.139 ; 0.200       
   3   SYMMETRY H-BOND OTHERS            (A):  NULL ;  NULL ;  NULL       
   3   SYMMETRY METAL-ION REFINED ATOMS  (A):  NULL ;  NULL ;  NULL       
   3   SYMMETRY METAL-ION OTHERS         (A):  NULL ;  NULL ;  NULL       
   3                                                                      
   3  ISOTROPIC THERMAL FACTOR RESTRAINTS.     COUNT   RMS    WEIGHT      
   3   MAIN-CHAIN BOND REFINED ATOMS  (A**2):  3665 ; 0.865 ; 1.500       
   3   MAIN-CHAIN BOND OTHER ATOMS    (A**2):  NULL ;  NULL ;  NULL       
   3   MAIN-CHAIN ANGLE REFINED ATOMS (A**2):  5775 ; 1.399 ; 2.000       
   3   MAIN-CHAIN ANGLE OTHER ATOMS   (A**2):  NULL ;  NULL ;  NULL       
   3   SIDE-CHAIN BOND REFINED ATOMS  (A**2):  2556 ; 2.222 ; 3.000       
   3   SIDE-CHAIN BOND OTHER ATOMS    (A**2):  NULL ;  NULL ;  NULL       
   3   SIDE-CHAIN ANGLE REFINED ATOMS (A**2):  2181 ; 3.445 ; 4.500       
   3   SIDE-CHAIN ANGLE OTHER ATOMS   (A**2):  NULL ;  NULL ;  NULL       
   3   LONG RANGE B REFINED ATOMS     (A**2):  NULL ;  NULL ;  NULL       
   3   LONG RANGE B OTHER ATOMS       (A**2):  NULL ;  NULL ;  NULL       
   3                                                                      
   3 ANISOTROPIC THERMAL FACTOR RESTRAINTS.    COUNT   RMS   WEIGHT       
   3   RIGID-BOND RESTRAINTS          (A**2):  NULL ;  NULL ;  NULL       
   3   SPHERICITY; FREE ATOMS         (A**2):  NULL ;  NULL ;  NULL       
   3   SPHERICITY; BONDED ATOMS       (A**2):  NULL ;  NULL ;  NULL       
   3                                                                      
   3  NCS RESTRAINTS STATISTICS                                           
   3   NUMBER OF DIFFERENT NCS GROUPS : NULL                              
   3                                                                      
   3  TLS DETAILS                                                         
   3   NUMBER OF TLS GROUPS  : NULL                                       
   3                                                                      
   3  BULK SOLVENT MODELLING.                                             
   3   METHOD USED : MASK                                                 
   3   PARAMETERS FOR MASK CALCULATION                                    
   3   VDW PROBE RADIUS   : 1.40                                          
   3   ION PROBE RADIUS   : 0.80                                          
   3   SHRINKAGE RADIUS   : 0.80                                          
   3                                                                      
   3  OTHER REFINEMENT REMARKS: HYDROGENS HAVE BEEN ADDED IN THE RIDING   
   3  POSITIONS                                                           
   4                                                                      
   4 2RCX COMPLIES WITH FORMAT V. 3.30, 13-JUL-11                         
 100                                                                      
 100 THIS ENTRY HAS BEEN PROCESSED BY RCSB ON 14-NOV-07.                  
 100 THE DEPOSITION ID IS D_1000044708.                                   
 200                                                                      
 200 EXPERIMENTAL DETAILS                                                 
 200  EXPERIMENT TYPE                : X-RAY DIFFRACTION                  
 200  DATE OF DATA COLLECTION        : 18-JUL-05                          
 200  TEMPERATURE           (KELVIN) : 100                                
 200  PH                             : 8.7                                
 200  NUMBER OF CRYSTALS USED        : 1                                  
 200                                                                      
 200  SYNCHROTRON              (Y/N) : Y                                  
 200  RADIATION SOURCE               : ALS                                
 200  BEAMLINE                       : 8.3.1                              
 200  X-RAY GENERATOR MODEL          : NULL                               
 200  MONOCHROMATIC OR LAUE    (M/L) : M                                  
 200  WAVELENGTH OR RANGE        (A) : 1.115889                           
 200  MONOCHROMATOR                  : DOUBLE CRYSTAL                     
 200  OPTICS                         : NULL                               
 200                                                                      
 200  DETECTOR TYPE                  : CCD                                
 200  DETECTOR MANUFACTURER          : ADSC QUANTUM 210                   
 200  INTENSITY-INTEGRATION SOFTWARE : DENZO, HKL-2000                    
 200  DATA SCALING SOFTWARE          : SCALEPACK                          
 200                                                                      
 200  NUMBER OF UNIQUE REFLECTIONS   : 53511                              
 200  RESOLUTION RANGE HIGH      (A) : 2.000                              
 200  RESOLUTION RANGE LOW       (A) : 50.000                             
 200  REJECTION CRITERIA  (SIGMA(I)) : NULL                               
 200                                                                      
 200 OVERALL.                                                             
 200  COMPLETENESS FOR RANGE     (%) : 99.8                               
 200  DATA REDUNDANCY                : 3.900                              
 200  R MERGE                    (I) : 0.06900                            
 200  R SYM                      (I) : NULL                               
 200  <I/SIGMA(I)> FOR THE DATA SET  : 8.7000                             
 200                                                                      
 200 IN THE HIGHEST RESOLUTION SHELL.                                     
 200  HIGHEST RESOLUTION SHELL, RANGE HIGH (A) : 2.00                     
 200  HIGHEST RESOLUTION SHELL, RANGE LOW  (A) : 2.07                     
 200  COMPLETENESS FOR SHELL     (%) : 98.8                               
 200  DATA REDUNDANCY IN SHELL       : 3.50                               
 200  R MERGE FOR SHELL          (I) : 0.49200                            
 200  R SYM FOR SHELL            (I) : NULL                               
 200  <I/SIGMA(I)> FOR SHELL         : 2.070                              
 200                                                                      
 200 DIFFRACTION PROTOCOL: SINGLE WAVELENGTH                              
 200 METHOD USED TO DETERMINE THE STRUCTURE: MOLECULAR REPLACEMENT        
 200 SOFTWARE USED: REFMAC 5.2.0019                                       
 200 STARTING MODEL: PDB ENTRY 1KE4                                       
 200                                                                      
 200 REMARK: NULL                                                         
 280                                                                      
 280 CRYSTAL                                                              
 280 SOLVENT CONTENT, VS   (%): 51.12                                     
 280 MATTHEWS COEFFICIENT, VM (ANGSTROMS**3/DA): 2.52                     
 280                                                                      
 280 CRYSTALLIZATION CONDITIONS: POTASSIUM PHOSPHATE BUFFER, PH 8.7,      
 280  VAPOR DIFFUSION, HANGING DROP, TEMPERATURE 293K                     
 290                                                                      
 290 CRYSTALLOGRAPHIC SYMMETRY                                            
 290 SYMMETRY OPERATORS FOR SPACE GROUP: C 1 2 1                          
 290                                                                      
 290      SYMOP   SYMMETRY                                                
 290     NNNMMM   OPERATOR                                                
 290       1555   X,Y,Z                                                   
 290       2555   -X,Y,-Z                                                 
 290       3555   X+1/2,Y+1/2,Z                                           
 290       4555   -X+1/2,Y+1/2,-Z                                         
 290                                                                      
 290     WHERE NNN -> OPERATOR NUMBER                                     
 290           MMM -> TRANSLATION VECTOR                                  
 290                                                                      
 290 CRYSTALLOGRAPHIC SYMMETRY TRANSFORMATIONS                            
 290 THE FOLLOWING TRANSFORMATIONS OPERATE ON THE ATOM/HETATM             
 290 RECORDS IN THIS ENTRY TO PRODUCE CRYSTALLOGRAPHICALLY                
 290 RELATED MOLECULES.                                                   
 290   SMTRY1   1  1.000000  0.000000  0.000000        0.00000            
 290   SMTRY2   1  0.000000  1.000000  0.000000        0.00000            
 290   SMTRY3   1  0.000000  0.000000  1.000000        0.00000            
 290   SMTRY1   2 -1.000000  0.000000  0.000000        0.00000            
 290   SMTRY2   2  0.000000  1.000000  0.000000        0.00000            
 290   SMTRY3   2  0.000000  0.000000 -1.000000        0.00000            
 290   SMTRY1   3  1.000000  0.000000  0.000000       59.18900            
 290   SMTRY2   3  0.000000  1.000000  0.000000       38.46850            
 290   SMTRY3   3  0.000000  0.000000  1.000000        0.00000            
 290   SMTRY1   4 -1.000000  0.000000  0.000000       59.18900            
 290   SMTRY2   4  0.000000  1.000000  0.000000       38.46850            
 290   SMTRY3   4  0.000000  0.000000 -1.000000        0.00000            
 290                                                                      
 290 REMARK: NULL                                                         
 300                                                                      
 300 BIOMOLECULE: 1, 2                                                    
 300 SEE REMARK 350 FOR THE AUTHOR PROVIDED AND/OR PROGRAM                
 300 GENERATED ASSEMBLY INFORMATION FOR THE STRUCTURE IN                  
 300 THIS ENTRY. THE REMARK MAY ALSO PROVIDE INFORMATION ON               
 300 BURIED SURFACE AREA.                                                 
 350                                                                      
 350 COORDINATES FOR A COMPLETE MULTIMER REPRESENTING THE KNOWN           
 350 BIOLOGICALLY SIGNIFICANT OLIGOMERIZATION STATE OF THE                
 350 MOLECULE CAN BE GENERATED BY APPLYING BIOMT TRANSFORMATIONS          
 350 GIVEN BELOW.  BOTH NON-CRYSTALLOGRAPHIC AND                          
 350 CRYSTALLOGRAPHIC OPERATIONS ARE GIVEN.                               
 350                                                                      
 350 BIOMOLECULE: 1                                                       
 350 AUTHOR DETERMINED BIOLOGICAL UNIT: MONOMERIC                         
 350 APPLY THE FOLLOWING TO CHAINS: A                                     
 350   BIOMT1   1  1.000000  0.000000  0.000000        0.00000            
 350   BIOMT2   1  0.000000  1.000000  0.000000        0.00000            
 350   BIOMT3   1  0.000000  0.000000  1.000000        0.00000            
 350                                                                      
 350 BIOMOLECULE: 2                                                       
 350 AUTHOR DETERMINED BIOLOGICAL UNIT: MONOMERIC                         
 350 APPLY THE FOLLOWING TO CHAINS: B                                     
 350   BIOMT1   1  1.000000  0.000000  0.000000        0.00000            
 350   BIOMT2   1  0.000000  1.000000  0.000000        0.00000            
 350   BIOMT3   1  0.000000  0.000000  1.000000        0.00000            
 500                                                                      
 500 GEOMETRY AND STEREOCHEMISTRY                                         
 500 SUBTOPIC: CLOSE CONTACTS IN SAME ASYMMETRIC UNIT                     
 500                                                                      
 500 THE FOLLOWING ATOMS ARE IN CLOSE CONTACT.                            
 500                                                                      
 500  ATM1  RES C  SSEQI   ATM2  RES C  SSEQI           DISTANCE          
 500   OD1  ASP B    87     OH   TYR B    92              2.10            
 500                                                                      
 500 REMARK: NULL                                                         
 500                                                                      
 500 GEOMETRY AND STEREOCHEMISTRY                                         
 500 SUBTOPIC: TORSION ANGLES                                             
 500                                                                      
 500 TORSION ANGLES OUTSIDE THE EXPECTED RAMACHANDRAN REGIONS:            
 500 (M=MODEL NUMBER; RES=RESIDUE NAME; C=CHAIN IDENTIFIER;               
 500 SSEQ=SEQUENCE NUMBER; I=INSERTION CODE).                             
 500                                                                      
 500 STANDARD TABLE:                                                      
 500 FORMAT:(10X,I3,1X,A3,1X,A1,I4,A1,4X,F7.2,3X,F7.2)                    
 500                                                                      
 500 EXPECTED VALUES: GJ KLEYWEGT AND TA JONES (1996). PHI/PSI-           
 500 CHOLOGY: RAMACHANDRAN REVISITED. STRUCTURE 4, 1395 - 1400            
 500                                                                      
 500  M RES CSSEQI        PSI       PHI                                   
 500    LYS A 126      -59.14   -120.75                                   
 500    VAL A 178      -61.32   -122.10                                   
 500    TYR A 221       18.07   -157.45                                   
 500    ALA A 307      119.18    -34.44                                   
 500    ASN A 341       40.49    -99.89                                   
 500    LYS B 126      -66.96   -124.66                                   
 500    VAL B 178      -61.84   -121.76                                   
 500    PRO B 213      139.21    -39.99                                   
 500    TYR B 221       20.48   -162.01                                   
 500    ASN B 341       40.47    -95.78                                   
 500                                                                      
 500 REMARK: NULL                                                         
 500                                                                      
 500 GEOMETRY AND STEREOCHEMISTRY                                         
 500 SUBTOPIC: NON-CIS, NON-TRANS                                         
 500                                                                      
 500 THE FOLLOWING PEPTIDE BONDS DEVIATE SIGNIFICANTLY FROM BOTH          
 500 CIS AND TRANS CONFORMATION.  CIS BONDS, IF ANY, ARE LISTED           
 500 ON CISPEP RECORDS.  TRANS IS DEFINED AS 180 +/- 30 AND               
 500 CIS IS DEFINED AS 0 +/- 30 DEGREES.                                  
 500                                 MODEL     OMEGA                      
 500 LYS A  290     ILE A  291                  146.61                    
 500                                                                      
 500 REMARK: NULL                                                         
 800                                                                      
 800 SITE                                                                 
 800 SITE_IDENTIFIER: AC1                                                 
 800 EVIDENCE_CODE: SOFTWARE                                              
 800 SITE_DESCRIPTION: BINDING SITE FOR RESIDUE SM4 A 964                 
 800                                                                      
 800 SITE_IDENTIFIER: AC2                                                 
 800 EVIDENCE_CODE: SOFTWARE                                              
 800 SITE_DESCRIPTION: BINDING SITE FOR RESIDUE PO4 A 1                   
 800                                                                      
 800 SITE_IDENTIFIER: AC3                                                 
 800 EVIDENCE_CODE: SOFTWARE                                              
 800 SITE_DESCRIPTION: BINDING SITE FOR RESIDUE PO4 A 362                 
 800                                                                      
 800 SITE_IDENTIFIER: AC4                                                 
 800 EVIDENCE_CODE: SOFTWARE                                              
 800 SITE_DESCRIPTION: BINDING SITE FOR RESIDUE SM4 B 964                 
 900                                                                      
 900 RELATED ENTRIES                                                      
 900 RELATED ID: 1KE4   RELATED DB: PDB                                   
 900 X-RAY CRYSTAL STRUCTURE OF AMPC BETA-LACTAMASE FROM E. COLI          
 900 RELATED ID: 1FSW   RELATED DB: PDB                                   
 900 AMPC BETA-LACTAMASE IN COMPLEX WITH A GLYCYLBORONIC ACID BEARING     
 900 THE CEPHALOTHIN R1 SIDE CHAIN                                        
 900 RELATED ID: 1MXO   RELATED DB: PDB                                   
 900 AMPC BETA-LACTAMASE IN COMPLEX WITH AN M.CARBOXYPHENYLGLYCYLBORONIC  
 900 ACID BEARING THE CEPHALOTHIN R1 SIDE CHAIN                           

>  <DBREF>
 2RCX A    4   361  UNP    P00811   AMPC_ECOLI      20    377             
 2RCX B    4   361  UNP    P00811   AMPC_ECOLI      20    377             

>  <SEQRES>
   1 A  358  ALA PRO GLN GLN ILE ASN ASP ILE VAL HIS ARG THR ILE          
   2 A  358  THR PRO LEU ILE GLU GLN GLN LYS ILE PRO GLY MET ALA          
   3 A  358  VAL ALA VAL ILE TYR GLN GLY LYS PRO TYR TYR PHE THR          
   4 A  358  TRP GLY TYR ALA ASP ILE ALA LYS LYS GLN PRO VAL THR          
   5 A  358  GLN GLN THR LEU PHE GLU LEU GLY SER VAL SER LYS THR          
   6 A  358  PHE THR GLY VAL LEU GLY GLY ASP ALA ILE ALA ARG GLY          
   7 A  358  GLU ILE LYS LEU SER ASP PRO THR THR LYS TYR TRP PRO          
   8 A  358  GLU LEU THR ALA LYS GLN TRP ASN GLY ILE THR LEU LEU          
   9 A  358  HIS LEU ALA THR TYR THR ALA GLY GLY LEU PRO LEU GLN          
  10 A  358  VAL PRO ASP GLU VAL LYS SER SER SER ASP LEU LEU ARG          
  11 A  358  PHE TYR GLN ASN TRP GLN PRO ALA TRP ALA PRO GLY THR          
  12 A  358  GLN ARG LEU TYR ALA ASN SER SER ILE GLY LEU PHE GLY          
  13 A  358  ALA LEU ALA VAL LYS PRO SER GLY LEU SER PHE GLU GLN          
  14 A  358  ALA MET GLN THR ARG VAL PHE GLN PRO LEU LYS LEU ASN          
  15 A  358  HIS THR TRP ILE ASN VAL PRO PRO ALA GLU GLU LYS ASN          
  16 A  358  TYR ALA TRP GLY TYR ARG GLU GLY LYS ALA VAL HIS VAL          
  17 A  358  SER PRO GLY ALA LEU ASP ALA GLU ALA TYR GLY VAL LYS          
  18 A  358  SER THR ILE GLU ASP MET ALA ARG TRP VAL GLN SER ASN          
  19 A  358  LEU LYS PRO LEU ASP ILE ASN GLU LYS THR LEU GLN GLN          
  20 A  358  GLY ILE GLN LEU ALA GLN SER ARG TYR TRP GLN THR GLY          
  21 A  358  ASP MET TYR GLN GLY LEU GLY TRP GLU MET LEU ASP TRP          
  22 A  358  PRO VAL ASN PRO ASP SER ILE ILE ASN GLY SER ASP ASN          
  23 A  358  LYS ILE ALA LEU ALA ALA ARG PRO VAL LYS ALA ILE THR          
  24 A  358  PRO PRO THR PRO ALA VAL ARG ALA SER TRP VAL HIS LYS          
  25 A  358  THR GLY ALA THR GLY GLY PHE GLY SER TYR VAL ALA PHE          
  26 A  358  ILE PRO GLU LYS GLU LEU GLY ILE VAL MET LEU ALA ASN          
  27 A  358  LYS ASN TYR PRO ASN PRO ALA ARG VAL ASP ALA ALA TRP          
  28 A  358  GLN ILE LEU ASN ALA LEU GLN                                  
   1 B  358  ALA PRO GLN GLN ILE ASN ASP ILE VAL HIS ARG THR ILE          
   2 B  358  THR PRO LEU ILE GLU GLN GLN LYS ILE PRO GLY MET ALA          
   3 B  358  VAL ALA VAL ILE TYR GLN GLY LYS PRO TYR TYR PHE THR          
   4 B  358  TRP GLY TYR ALA ASP ILE ALA LYS LYS GLN PRO VAL THR          
   5 B  358  GLN GLN THR LEU PHE GLU LEU GLY SER VAL SER LYS THR          
   6 B  358  PHE THR GLY VAL LEU GLY GLY ASP ALA ILE ALA ARG GLY          
   7 B  358  GLU ILE LYS LEU SER ASP PRO THR THR LYS TYR TRP PRO          
   8 B  358  GLU LEU THR ALA LYS GLN TRP ASN GLY ILE THR LEU LEU          
   9 B  358  HIS LEU ALA THR TYR THR ALA GLY GLY LEU PRO LEU GLN          
  10 B  358  VAL PRO ASP GLU VAL LYS SER SER SER ASP LEU LEU ARG          
  11 B  358  PHE TYR GLN ASN TRP GLN PRO ALA TRP ALA PRO GLY THR          
  12 B  358  GLN ARG LEU TYR ALA ASN SER SER ILE GLY LEU PHE GLY          
  13 B  358  ALA LEU ALA VAL LYS PRO SER GLY LEU SER PHE GLU GLN          
  14 B  358  ALA MET GLN THR ARG VAL PHE GLN PRO LEU LYS LEU ASN          
  15 B  358  HIS THR TRP ILE ASN VAL PRO PRO ALA GLU GLU LYS ASN          
  16 B  358  TYR ALA TRP GLY TYR ARG GLU GLY LYS ALA VAL HIS VAL          
  17 B  358  SER PRO GLY ALA LEU ASP ALA GLU ALA TYR GLY VAL LYS          
  18 B  358  SER THR ILE GLU ASP MET ALA ARG TRP VAL GLN SER ASN          
  19 B  358  LEU LYS PRO LEU ASP ILE ASN GLU LYS THR LEU GLN GLN          
  20 B  358  GLY ILE GLN LEU ALA GLN SER ARG TYR TRP GLN THR GLY          
  21 B  358  ASP MET TYR GLN GLY LEU GLY TRP GLU MET LEU ASP TRP          
  22 B  358  PRO VAL ASN PRO ASP SER ILE ILE ASN GLY SER ASP ASN          
  23 B  358  LYS ILE ALA LEU ALA ALA ARG PRO VAL LYS ALA ILE THR          
  24 B  358  PRO PRO THR PRO ALA VAL ARG ALA SER TRP VAL HIS LYS          
  25 B  358  THR GLY ALA THR GLY GLY PHE GLY SER TYR VAL ALA PHE          
  26 B  358  ILE PRO GLU LYS GLU LEU GLY ILE VAL MET LEU ALA ASN          
  27 B  358  LYS ASN TYR PRO ASN PRO ALA ARG VAL ASP ALA ALA TRP          
  28 B  358  GLN ILE LEU ASN ALA LEU GLN                                  

>  <HET>
 SM4  A 964      24                                                       
 PO4  A   1       5                                                       
 PO4  A 362       5                                                       
 SM4  B 964      24                                                       

>  <HETNAM>
     SM4 (1R)-1-(2-THIOPHEN-2-YL-ACETYLAMINO)-1-(3-(2-                    
   2 SM4  CARBOXYVINYL)-PHENYL) METHYLBORONIC ACID                        
     PO4 PHOSPHATE ION                                                    

>  <HETSYN>
     SM4 (2E)-3-(3-{(R)-(DIHYDROXYBORYL)[(2-THIENYLACETYL)                
   2 SM4  AMINO]METHYL}PHENYL)ACRYLIC ACID                                

>  <FORMUL>
   3  SM4    2(C16 H16 B N O5 S)                                          
   4  PO4    2(O4 P 3-)                                                   
   7  HOH   *482(H2 O)                                                    

>  <HELIX>
   1   1 PRO A    5  LYS A   24  1                                  20    
   2   2 VAL A   65  ARG A   80  1                                  16    
   3   3 PRO A   88  TYR A   92  5                                   5    
   4   4 ALA A   98  ASN A  102  5                                   5    
   5   5 THR A  105  THR A  111  1                                   7    
   6   6 SER A  127  TRP A  138  1                                  12    
   7   7 ALA A  151  VAL A  163  1                                  13    
   8   8 SER A  169  VAL A  178  1                                  10    
   9   9 PRO A  192  TYR A  199  5                                   8    
  10  10 LEU A  216  TYR A  221  1                                   6    
  11  11 ILE A  227  LYS A  239  1                                  13    
  12  12 PRO A  240  ILE A  243  5                                   4    
  13  13 GLU A  245  GLN A  256  1                                  12    
  14  14 ASN A  279  ASP A  288  1                                  10    
  15  15 ASP A  288  LEU A  293  1                                   6    
  16  16 PRO A  330  GLU A  333  5                                   4    
  17  17 PRO A  345  GLN A  361  1                                  17    
  18  18 PRO B    5  LYS B   24  1                                  20    
  19  19 VAL B   65  ARG B   80  1                                  16    
  20  20 PRO B   88  TYR B   92  5                                   5    
  21  21 ALA B   98  ASN B  102  5                                   5    
  22  22 THR B  105  THR B  111  1                                   7    
  23  23 SER B  127  TRP B  138  1                                  12    
  24  24 ALA B  151  VAL B  163  1                                  13    
  25  25 SER B  169  VAL B  178  1                                  10    
  26  26 PRO B  192  TYR B  199  5                                   8    
  27  27 LEU B  216  GLY B  222  1                                   7    
  28  28 THR B  226  LYS B  239  1                                  14    
  29  29 PRO B  240  ILE B  243  5                                   4    
  30  30 GLU B  245  GLN B  256  1                                  12    
  31  31 ASN B  279  SER B  287  1                                   9    
  32  32 ASP B  288  LEU B  293  1                                   6    
  33  33 PRO B  330  GLU B  333  5                                   4    
  34  34 PRO B  345  GLN B  361  1                                  17    

>  <SHEET>
   1   A10 GLN A  52  PRO A  53  0                                        
   2   A10 LYS A  37  ASP A  47 -1  N  ALA A  46   O  GLN A  52           
   3   A10 GLY A  27  TYR A  34 -1  N  TYR A  34   O  LYS A  37           
   4   A10 LEU A 334  ALA A 340 -1  O  LEU A 339   N  ALA A  29           
   5   A10 GLY A 323  ILE A 329 -1  N  ILE A 329   O  LEU A 334           
   6   A10 SER A 311  ALA A 318 -1  N  VAL A 313   O  PHE A 328           
   7   A10 GLU A 272  ASP A 275 -1  N  GLU A 272   O  HIS A 314           
   8   A10 MET A 265  GLN A 267 -1  N  TYR A 266   O  MET A 273           
   9   A10 ARG A 258  THR A 262 -1  N  TYR A 259   O  GLN A 267           
  10   A10 LYS A 299  THR A 305 -1  O  THR A 305   N  ARG A 258           
   1   B 2 LEU A  59  GLU A  61  0                                        
   2   B 2 LYS A 224  THR A 226 -1  O  SER A 225   N  PHE A  60           
   1   C 2 GLN A 147  ARG A 148  0                                        
   2   C 2 ARG A 296  PRO A 297 -1  O  ARG A 296   N  ARG A 148           
   1   D 2 GLY A 202  ARG A 204  0                                        
   2   D 2 LYS A 207  VAL A 209 -1  O  VAL A 209   N  GLY A 202           
   1   E10 GLN B  52  PRO B  53  0                                        
   2   E10 LYS B  37  ASP B  47 -1  N  ALA B  46   O  GLN B  52           
   3   E10 GLY B  27  TYR B  34 -1  N  MET B  28   O  TRP B  43           
   4   E10 LEU B 334  ALA B 340 -1  O  GLY B 335   N  ILE B  33           
   5   E10 PHE B 322  ILE B 329 -1  N  ILE B 329   O  LEU B 334           
   6   E10 SER B 311  THR B 319 -1  N  GLY B 317   O  SER B 324           
   7   E10 GLU B 272  ASP B 275 -1  N  LEU B 274   O  TRP B 312           
   8   E10 MET B 265  GLN B 267 -1  N  TYR B 266   O  MET B 273           
   9   E10 ARG B 258  THR B 262 -1  N  TYR B 259   O  GLN B 267           
  10   E10 LYS B 299  THR B 305 -1  O  THR B 305   N  ARG B 258           
   1   F 2 PHE B  60  GLU B  61  0                                        
   2   F 2 LYS B 224  SER B 225 -1  O  SER B 225   N  PHE B  60           
   1   G 2 GLN B 147  ARG B 148  0                                        
   2   G 2 ARG B 296  PRO B 297 -1  O  ARG B 296   N  ARG B 148           
   1   H 2 GLY B 202  ARG B 204  0                                        
   2   H 2 LYS B 207  VAL B 209 -1  O  VAL B 209   N  GLY B 202           

>  <LINK>
       OG  SER B  64                 B   SM4 B 964     1555   1555  1.39  
       OG  SER A  64                 B   SM4 A 964     1555   1555  1.72  

>  <CISPEP>
   1 TRP A  276    PRO A  277          0        -1.45                     
   2 THR A  302    PRO A  303          0        -2.28                     
   3 TRP B  276    PRO B  277          0        -0.10                     
   4 THR B  302    PRO B  303          0         0.79                     

>  <SITE>
   1 AC1 12 PO4 A   1  SER A  64  LEU A 119  TYR A 150                    
   2 AC1 12 ASN A 152  TYR A 221  ASN A 289  GLY A 317                    
   3 AC1 12 ALA A 318  GLY A 320  ASN A 343  HOH A1125                    
   1 AC2  8 SER A  64  TYR A 150  LYS A 315  THR A 316                    
   2 AC2  8 GLY A 317  ALA A 318  SM4 A 964  HOH A1187                    
   1 AC3  7 HIS A 186  HOH A1025  HOH A1030  HOH A1044                    
   2 AC3  7 HOH A1114  HOH A1227  LYS B 290                               
   1 AC4 13 SER B  64  LEU B 119  GLN B 120  TYR B 150                    
   2 AC4 13 ASN B 152  TYR B 221  ASN B 289  GLY B 317                    
   3 AC4 13 ALA B 318  THR B 319  GLY B 320  ASN B 343                    
   4 AC4 13 HOH B1143                                                     

>  <ORIGX1>
      1.000000  0.000000  0.000000        0.00000                         

>  <ORIGX2>
      0.000000  1.000000  0.000000        0.00000                         

>  <ORIGX3>
      0.000000  0.000000  1.000000        0.00000                         

>  <SCALE1>
      0.008448  0.000000  0.004097        0.00000                         

>  <SCALE2>
      0.000000  0.012998  0.000000        0.00000                         

>  <SCALE3>
      0.000000  0.000000  0.011428        0.00000                         

>  <MASTER>
      316    0    4   34   32    0   11    6 6140    2   60   56          

$$$$
