start_structures/Ligand_Substrate/Ligand_Complex_Stripped/SR3_3RXW.pdb
 OpenBabel08222315203D

 27 26  0  0  1  0  0  0  0  0999 V2000
    5.4630    5.2280    6.5510 N   0  0  0  0  0  0  0  0  0  0  0  0
    4.7640    3.9370    6.6770 C   0  0  2  0  0  0  0  0  0  0  0  0
    4.3800    3.6010    8.1150 C   0  0  0  0  0  0  0  0  0  0  0  0
    3.6880    2.6010    8.3410 O   0  0  0  0  0  0  0  0  0  0  0  0
    5.6360    2.7830    6.0960 C   0  0  0  0  0  0  0  0  0  0  0  0
    5.7210    2.8580    4.6850 O   0  0  0  0  0  0  0  0  0  0  0  0
    6.0630    4.0320   -0.2230 C   0  0  0  0  0  0  0  0  0  0  0  0
    8.2840    4.3250    0.7920 N   0  0  0  0  0  0  0  0  0  0  0  0
    5.9640    5.1910   -0.6660 O   0  0  0  0  0  0  0  0  0  0  0  0
    7.4780    3.4450   -0.0690 C   0  0  2  0  0  0  0  0  0  0  0  0
    8.2290    3.2430   -1.4080 C   0  0  1  0  0  0  0  0  0  0  0  0
    8.6840    4.5790   -2.0690 C   0  0  0  0  0  0  0  0  0  0  0  0
    9.4470    2.3250   -1.1800 C   0  0  0  0  0  0  0  0  0  0  0  0
    6.9070    7.8360   -4.3220 N   0  0  0  0  0  0  0  0  0  0  0  0
    7.6380    4.1230    5.0330 O   0  0  0  0  0  0  0  0  0  0  0  0
    9.0570    7.4570   -3.7430 O   0  0  0  0  0  0  0  0  0  0  0  0
    6.3430    1.3770   -1.9780 O   0  0  0  0  0  0  0  0  0  0  0  0
    8.0610    1.7340   -3.6610 O   0  0  0  0  0  0  0  0  0  0  0  0
    6.8240    3.6390    4.2590 C   0  0  0  0  0  0  0  0  0  0  0  0
    7.1160    3.4550    2.8000 C   0  0  0  0  0  0  0  0  0  0  0  0
    7.8960    4.3530    2.2100 C   0  0  0  0  0  0  0  0  0  0  0  0
    7.4200    6.6030   -2.2400 C   0  0  0  0  0  0  0  0  0  0  0  0
    7.8540    7.3400   -3.5150 C   0  0  0  0  0  0  0  0  0  0  0  0
    7.1860    2.4140   -2.6490 S   0  0  0  0  0  0  0  0  0  0  0  0
    9.3130    4.5450   -3.1280 O   0  0  0  0  0  0  0  0  0  0  0  0
    8.4340    5.8180   -1.5250 O   0  0  0  0  0  0  0  0  0  0  0  0
    5.1170    3.3420    0.1980 O   0  0  0  0  0  0  0  0  0  0  0  0
  2  1  1  1  0  0  0
  2  3  1  0  0  0  0
  3  4  2  0  0  0  0
  5  2  1  0  0  0  0
  6 19  1  0  0  0  0
  6  5  1  0  0  0  0
  7  9  2  0  0  0  0
  7 27  1  0  0  0  0
  8 10  1  0  0  0  0
  8 21  1  0  0  0  0
 10  7  1  6  0  0  0
 10 11  1  0  0  0  0
 11 12  1  0  0  0  0
 11 13  1  1  0  0  0
 11 24  1  0  0  0  0
 12 25  2  0  0  0  0
 12 26  1  0  0  0  0
 14 23  1  0  0  0  0
 15 19  2  0  0  0  0
 16 23  2  0  0  0  0
 17 24  1  0  0  0  0
 18 24  1  0  0  0  0
 19 20  1  0  0  0  0
 20 21  2  0  0  0  0
 22 23  1  0  0  0  0
 22 26  1  0  0  0  0
M  END
>  <HEADER>
    HYDROLASE/HYDROLASE INHIBITOR           10-MAY-11   3RXW              

>  <TITLE>
    KPC-2 CARBAPENEMASE IN COMPLEX WITH PSR3-226                          

>  <COMPND>
    MOL_ID: 1;                                                            
   2 MOLECULE: CARBEPENEM-HYDROLYZING BETA-LACTAMASE KPC;                 
   3 CHAIN: A;                                                            
   4 FRAGMENT: UNP RESIDUES 26-289;                                       
   5 SYNONYM: KPC-1, KPC-2;                                               
   6 EC: 3.5.2.6;                                                         
   7 ENGINEERED: YES                                                      

>  <SOURCE>
    MOL_ID: 1;                                                            
   2 ORGANISM_SCIENTIFIC: KLEBSIELLA PNEUMONIAE;                          
   3 ORGANISM_TAXID: 573;                                                 
   4 GENE: BLA, BLAKPC-2, KPC, KPC1;                                      
   5 EXPRESSION_SYSTEM: ESCHERICHIA COLI;                                 
   6 EXPRESSION_SYSTEM_TAXID: 511693;                                     
   7 EXPRESSION_SYSTEM_STRAIN: BL21;                                      
   8 EXPRESSION_SYSTEM_VECTOR_TYPE: PLASMID;                              
   9 EXPRESSION_SYSTEM_PLASMID: PET30A                                    

>  <KEYWDS>
    INHIBITOR, BETA-LACTAMASE, HYDROLASE-HYDROLASE INHIBITOR COMPLEX      

>  <EXPDTA>
    X-RAY DIFFRACTION                                                     

>  <AUTHOR>
    W.KE,F.VAN DEN AKKER                                                  

>  <REVDAT>
   2   19-JUN-13 3RXW    1       JRNL                                     
   1   21-MAR-12 3RXW    0                                                

>  <JRNL>
      AUTH   W.KE,C.R.BETHEL,K.M.PAPP-WALLACE,S.R.PAGADALA,M.NOTTINGHAM,  
      AUTH 2 D.FERNANDEZ,J.D.BUYNAK,R.A.BONOMO,F.VAN DEN AKKER            
      TITL   CRYSTAL STRUCTURES OF KPC-2 {BETA}-LACTAMASE IN COMPLEX WITH 
      TITL 2 3-NITROPHENYL BORONIC ACID AND THE PENAM SULFONE PSR-3-226.  
      REF    ANTIMICROB.AGENTS CHEMOTHER.  V.  56  2713 2012              
      REFN                   ISSN 0066-4804                               
      PMID   22330909                                                     
      DOI    10.1128/AAC.06099-11                                         

>  <REMARK>
   2                                                                      
   2 RESOLUTION.    1.26 ANGSTROMS.                                       
   3                                                                      
   3 REFINEMENT.                                                          
   3   PROGRAM     : REFMAC 5.5.0088                                      
   3   AUTHORS     : MURSHUDOV,VAGIN,DODSON                               
   3                                                                      
   3    REFINEMENT TARGET : MAXIMUM LIKELIHOOD                            
   3                                                                      
   3  DATA USED IN REFINEMENT.                                            
   3   RESOLUTION RANGE HIGH (ANGSTROMS) : 1.26                           
   3   RESOLUTION RANGE LOW  (ANGSTROMS) : 33.15                          
   3   DATA CUTOFF            (SIGMA(F)) : NULL                           
   3   COMPLETENESS FOR RANGE        (%) : 97.9                           
   3   NUMBER OF REFLECTIONS             : 59322                          
   3                                                                      
   3  FIT TO DATA USED IN REFINEMENT.                                     
   3   CROSS-VALIDATION METHOD          : THROUGHOUT                      
   3   FREE R VALUE TEST SET SELECTION  : RANDOM                          
   3   R VALUE     (WORKING + TEST SET) : 0.157                           
   3   R VALUE            (WORKING SET) : 0.156                           
   3   FREE R VALUE                     : 0.171                           
   3   FREE R VALUE TEST SET SIZE   (%) : 5.100                           
   3   FREE R VALUE TEST SET COUNT      : 3182                            
   3                                                                      
   3  FIT IN THE HIGHEST RESOLUTION BIN.                                  
   3   TOTAL NUMBER OF BINS USED           : 20                           
   3   BIN RESOLUTION RANGE HIGH       (A) : 1.26                         
   3   BIN RESOLUTION RANGE LOW        (A) : 1.29                         
   3   REFLECTION IN BIN     (WORKING SET) : 3513                         
   3   BIN COMPLETENESS (WORKING+TEST) (%) : 79.94                        
   3   BIN R VALUE           (WORKING SET) : 0.2310                       
   3   BIN FREE R VALUE SET COUNT          : 194                          
   3   BIN FREE R VALUE                    : 0.2490                       
   3                                                                      
   3  NUMBER OF NON-HYDROGEN ATOMS USED IN REFINEMENT.                    
   3   PROTEIN ATOMS            : 1972                                    
   3   NUCLEIC ACID ATOMS       : 0                                       
   3   HETEROGEN ATOMS          : 34                                      
   3   SOLVENT ATOMS            : 316                                     
   3                                                                      
   3  B VALUES.                                                           
   3   FROM WILSON PLOT           (A**2) : NULL                           
   3   MEAN B VALUE      (OVERALL, A**2) : 14.02                          
   3   OVERALL ANISOTROPIC B VALUE.                                       
   3    B11 (A**2) : 0.00000                                              
   3    B22 (A**2) : 0.00000                                              
   3    B33 (A**2) : 0.00000                                              
   3    B12 (A**2) : 0.00000                                              
   3    B13 (A**2) : 0.00000                                              
   3    B23 (A**2) : 0.00000                                              
   3                                                                      
   3  ESTIMATED OVERALL COORDINATE ERROR.                                 
   3   ESU BASED ON R VALUE                            (A): 0.044         
   3   ESU BASED ON FREE R VALUE                       (A): 0.044         
   3   ESU BASED ON MAXIMUM LIKELIHOOD                 (A): 0.025         
   3   ESU FOR B VALUES BASED ON MAXIMUM LIKELIHOOD (A**2): 0.565         
   3                                                                      
   3 CORRELATION COEFFICIENTS.                                            
   3   CORRELATION COEFFICIENT FO-FC      : 0.971                         
   3   CORRELATION COEFFICIENT FO-FC FREE : 0.964                         
   3                                                                      
   3  RMS DEVIATIONS FROM IDEAL VALUES        COUNT    RMS    WEIGHT      
   3   BOND LENGTHS REFINED ATOMS        (A):  2109 ; 0.010 ; 0.022       
   3   BOND LENGTHS OTHERS               (A):  NULL ;  NULL ;  NULL       
   3   BOND ANGLES REFINED ATOMS   (DEGREES):  2887 ; 1.360 ; 1.978       
   3   BOND ANGLES OTHERS          (DEGREES):  NULL ;  NULL ;  NULL       
   3   TORSION ANGLES, PERIOD 1    (DEGREES):   279 ; 6.177 ; 5.000       
   3   TORSION ANGLES, PERIOD 2    (DEGREES):    85 ;32.068 ;23.647       
   3   TORSION ANGLES, PERIOD 3    (DEGREES):   320 ;12.798 ;15.000       
   3   TORSION ANGLES, PERIOD 4    (DEGREES):    15 ;10.680 ;15.000       
   3   CHIRAL-CENTER RESTRAINTS       (A**3):   324 ; 0.078 ; 0.200       
   3   GENERAL PLANES REFINED ATOMS      (A):  1631 ; 0.008 ; 0.021       
   3   GENERAL PLANES OTHERS             (A):  NULL ;  NULL ;  NULL       
   3   NON-BONDED CONTACTS REFINED ATOMS (A):  1052 ; 0.213 ; 0.200       
   3   NON-BONDED CONTACTS OTHERS        (A):  NULL ;  NULL ;  NULL       
   3   NON-BONDED TORSION REFINED ATOMS  (A):  1493 ; 0.307 ; 0.200       
   3   NON-BONDED TORSION OTHERS         (A):  NULL ;  NULL ;  NULL       
   3   H-BOND (X...Y) REFINED ATOMS      (A):   237 ; 0.129 ; 0.200       
   3   H-BOND (X...Y) OTHERS             (A):  NULL ;  NULL ;  NULL       
   3   POTENTIAL METAL-ION REFINED ATOMS (A):  NULL ;  NULL ;  NULL       
   3   POTENTIAL METAL-ION OTHERS        (A):  NULL ;  NULL ;  NULL       
   3   SYMMETRY VDW REFINED ATOMS        (A):    68 ; 0.187 ; 0.200       
   3   SYMMETRY VDW OTHERS               (A):  NULL ;  NULL ;  NULL       
   3   SYMMETRY H-BOND REFINED ATOMS     (A):    19 ; 0.090 ; 0.200       
   3   SYMMETRY H-BOND OTHERS            (A):  NULL ;  NULL ;  NULL       
   3   SYMMETRY METAL-ION REFINED ATOMS  (A):  NULL ;  NULL ;  NULL       
   3   SYMMETRY METAL-ION OTHERS         (A):  NULL ;  NULL ;  NULL       
   3                                                                      
   3  ISOTROPIC THERMAL FACTOR RESTRAINTS.     COUNT   RMS    WEIGHT      
   3   MAIN-CHAIN BOND REFINED ATOMS  (A**2):  1339 ; 1.416 ; 1.500       
   3   MAIN-CHAIN BOND OTHER ATOMS    (A**2):  NULL ;  NULL ;  NULL       
   3   MAIN-CHAIN ANGLE REFINED ATOMS (A**2):  2142 ; 2.422 ; 2.000       
   3   SIDE-CHAIN BOND REFINED ATOMS  (A**2):   770 ; 3.945 ; 3.000       
   3   SIDE-CHAIN ANGLE REFINED ATOMS (A**2):   737 ; 6.463 ; 4.500       
   3                                                                      
   3 ANISOTROPIC THERMAL FACTOR RESTRAINTS.    COUNT   RMS   WEIGHT       
   3   RIGID-BOND RESTRAINTS          (A**2):  NULL ;  NULL ;  NULL       
   3   SPHERICITY; FREE ATOMS         (A**2):  NULL ;  NULL ;  NULL       
   3   SPHERICITY; BONDED ATOMS       (A**2):  NULL ;  NULL ;  NULL       
   3                                                                      
   3  NCS RESTRAINTS STATISTICS                                           
   3   NUMBER OF DIFFERENT NCS GROUPS : NULL                              
   3                                                                      
   3  TLS DETAILS                                                         
   3   NUMBER OF TLS GROUPS  : NULL                                       
   3                                                                      
   3  BULK SOLVENT MODELLING.                                             
   3   METHOD USED : MASK                                                 
   3   PARAMETERS FOR MASK CALCULATION                                    
   3   VDW PROBE RADIUS   : 1.40                                          
   3   ION PROBE RADIUS   : 0.80                                          
   3   SHRINKAGE RADIUS   : 0.80                                          
   3                                                                      
   3  OTHER REFINEMENT REMARKS: HYDROGENS HAVE BEEN ADDED IN THE RIDING   
   3  POSITIONS                                                           
   4                                                                      
   4 3RXW COMPLIES WITH FORMAT V. 3.30, 13-JUL-11                         
 100                                                                      
 100 THIS ENTRY HAS BEEN PROCESSED BY RCSB ON 13-MAY-11.                  
 100 THE RCSB ID CODE IS RCSB065512.                                      
 200                                                                      
 200 EXPERIMENTAL DETAILS                                                 
 200  EXPERIMENT TYPE                : X-RAY DIFFRACTION                  
 200  DATE OF DATA COLLECTION        : 25-JUL-09                          
 200  TEMPERATURE           (KELVIN) : 100                                
 200  PH                             : 4.0                                
 200  NUMBER OF CRYSTALS USED        : 1                                  
 200                                                                      
 200  SYNCHROTRON              (Y/N) : Y                                  
 200  RADIATION SOURCE               : APS                                
 200  BEAMLINE                       : 23-ID-D                            
 200  X-RAY GENERATOR MODEL          : NULL                               
 200  MONOCHROMATIC OR LAUE    (M/L) : M                                  
 200  WAVELENGTH OR RANGE        (A) : 0.98400                            
 200  MONOCHROMATOR                  : DOUBLE CRYSTAL CRYO-COOLED         
 200  OPTICS                         : MIRRORS                            
 200                                                                      
 200  DETECTOR TYPE                  : CCD                                
 200  DETECTOR MANUFACTURER          : MARMOSAIC 300 MM CCD               
 200  INTENSITY-INTEGRATION SOFTWARE : HKL-2000                           
 200  DATA SCALING SOFTWARE          : HKL-2000                           
 200                                                                      
 200  NUMBER OF UNIQUE REFLECTIONS   : 62504                              
 200  RESOLUTION RANGE HIGH      (A) : 1.260                              
 200  RESOLUTION RANGE LOW       (A) : 50.000                             
 200  REJECTION CRITERIA  (SIGMA(I)) : 1.000                              
 200                                                                      
 200 OVERALL.                                                             
 200  COMPLETENESS FOR RANGE     (%) : 97.9                               
 200  DATA REDUNDANCY                : 6.700                              
 200  R MERGE                    (I) : 0.07300                            
 200  R SYM                      (I) : NULL                               
 200  <I/SIGMA(I)> FOR THE DATA SET  : 23.0700                            
 200                                                                      
 200 IN THE HIGHEST RESOLUTION SHELL.                                     
 200  HIGHEST RESOLUTION SHELL, RANGE HIGH (A) : 1.26                     
 200  HIGHEST RESOLUTION SHELL, RANGE LOW  (A) : 1.31                     
 200  COMPLETENESS FOR SHELL     (%) : 82.5                               
 200  DATA REDUNDANCY IN SHELL       : 2.70                               
 200  R MERGE FOR SHELL          (I) : 0.27200                            
 200  R SYM FOR SHELL            (I) : NULL                               
 200  <I/SIGMA(I)> FOR SHELL         : 3.400                              
 200                                                                      
 200 DIFFRACTION PROTOCOL: SINGLE WAVELENGTH                              
 200 METHOD USED TO DETERMINE THE STRUCTURE: MOLECULAR REPLACEMENT        
 200 SOFTWARE USED: NULL                                                  
 200 STARTING MODEL: PDB ENTRY 3C5A                                       
 200                                                                      
 200 REMARK: NULL                                                         
 280                                                                      
 280 CRYSTAL                                                              
 280 SOLVENT CONTENT, VS   (%): 40.99                                     
 280 MATTHEWS COEFFICIENT, VM (ANGSTROMS**3/DA): 2.08                     
 280                                                                      
 280 CRYSTALLIZATION CONDITIONS: 20% PEG6000, 100 MM POTASSIUM            
 280  THIOCYANATE, 100 MM CITRATE, PH 4.0, VAPOR DIFFUSION, SITTING       
 280  DROP, TEMPERATURE 293.0K                                            
 290                                                                      
 290 CRYSTALLOGRAPHIC SYMMETRY                                            
 290 SYMMETRY OPERATORS FOR SPACE GROUP: P 21 21 21                       
 290                                                                      
 290      SYMOP   SYMMETRY                                                
 290     NNNMMM   OPERATOR                                                
 290       1555   X,Y,Z                                                   
 290       2555   -X+1/2,-Y,Z+1/2                                         
 290       3555   -X,Y+1/2,-Z+1/2                                         
 290       4555   X+1/2,-Y+1/2,-Z                                         
 290                                                                      
 290     WHERE NNN -> OPERATOR NUMBER                                     
 290           MMM -> TRANSLATION VECTOR                                  
 290                                                                      
 290 CRYSTALLOGRAPHIC SYMMETRY TRANSFORMATIONS                            
 290 THE FOLLOWING TRANSFORMATIONS OPERATE ON THE ATOM/HETATM             
 290 RECORDS IN THIS ENTRY TO PRODUCE CRYSTALLOGRAPHICALLY                
 290 RELATED MOLECULES.                                                   
 290   SMTRY1   1  1.000000  0.000000  0.000000        0.00000            
 290   SMTRY2   1  0.000000  1.000000  0.000000        0.00000            
 290   SMTRY3   1  0.000000  0.000000  1.000000        0.00000            
 290   SMTRY1   2 -1.000000  0.000000  0.000000       24.52550            
 290   SMTRY2   2  0.000000 -1.000000  0.000000        0.00000            
 290   SMTRY3   2  0.000000  0.000000  1.000000       35.88800            
 290   SMTRY1   3 -1.000000  0.000000  0.000000        0.00000            
 290   SMTRY2   3  0.000000  1.000000  0.000000       33.14400            
 290   SMTRY3   3  0.000000  0.000000 -1.000000       35.88800            
 290   SMTRY1   4  1.000000  0.000000  0.000000       24.52550            
 290   SMTRY2   4  0.000000 -1.000000  0.000000       33.14400            
 290   SMTRY3   4  0.000000  0.000000 -1.000000        0.00000            
 290                                                                      
 290 REMARK: NULL                                                         
 300                                                                      
 300 BIOMOLECULE: 1                                                       
 300 SEE REMARK 350 FOR THE AUTHOR PROVIDED AND/OR PROGRAM                
 300 GENERATED ASSEMBLY INFORMATION FOR THE STRUCTURE IN                  
 300 THIS ENTRY. THE REMARK MAY ALSO PROVIDE INFORMATION ON               
 300 BURIED SURFACE AREA.                                                 
 350                                                                      
 350 COORDINATES FOR A COMPLETE MULTIMER REPRESENTING THE KNOWN           
 350 BIOLOGICALLY SIGNIFICANT OLIGOMERIZATION STATE OF THE                
 350 MOLECULE CAN BE GENERATED BY APPLYING BIOMT TRANSFORMATIONS          
 350 GIVEN BELOW.  BOTH NON-CRYSTALLOGRAPHIC AND                          
 350 CRYSTALLOGRAPHIC OPERATIONS ARE GIVEN.                               
 350                                                                      
 350 BIOMOLECULE: 1                                                       
 350 AUTHOR DETERMINED BIOLOGICAL UNIT: MONOMERIC                         
 350 SOFTWARE DETERMINED QUATERNARY STRUCTURE: MONOMERIC                  
 350 SOFTWARE USED: PISA                                                  
 350 APPLY THE FOLLOWING TO CHAINS: A                                     
 350   BIOMT1   1  1.000000  0.000000  0.000000        0.00000            
 350   BIOMT2   1  0.000000  1.000000  0.000000        0.00000            
 350   BIOMT3   1  0.000000  0.000000  1.000000        0.00000            
 500                                                                      
 500 GEOMETRY AND STEREOCHEMISTRY                                         
 500 SUBTOPIC: CLOSE CONTACTS IN SAME ASYMMETRIC UNIT                     
 500                                                                      
 500 THE FOLLOWING ATOMS ARE IN CLOSE CONTACT.                            
 500                                                                      
 500  ATM1  RES C  SSEQI   ATM2  RES C  SSEQI           DISTANCE          
 500   O    HOH A   314     O    HOH A   575              1.88            
 500                                                                      
 500 REMARK: NULL                                                         
 500                                                                      
 500 GEOMETRY AND STEREOCHEMISTRY                                         
 500 SUBTOPIC: TORSION ANGLES                                             
 500                                                                      
 500 TORSION ANGLES OUTSIDE THE EXPECTED RAMACHANDRAN REGIONS:            
 500 (M=MODEL NUMBER; RES=RESIDUE NAME; C=CHAIN IDENTIFIER;               
 500 SSEQ=SEQUENCE NUMBER; I=INSERTION CODE).                             
 500                                                                      
 500 STANDARD TABLE:                                                      
 500 FORMAT:(10X,I3,1X,A3,1X,A1,I4,A1,4X,F7.2,3X,F7.2)                    
 500                                                                      
 500 EXPECTED VALUES: GJ KLEYWEGT AND TA JONES (1996). PHI/PSI-           
 500 CHOLOGY: RAMACHANDRAN REVISITED. STRUCTURE 4, 1395 - 1400            
 500                                                                      
 500  M RES CSSEQI        PSI       PHI                                   
 500    CYS A  68     -145.76     52.84                                   
 500    ARG A 219     -122.17   -112.70                                   
 500                                                                      
 500 REMARK: NULL                                                         
 800                                                                      
 800 SITE                                                                 
 800 SITE_IDENTIFIER: AC1                                                 
 800 EVIDENCE_CODE: SOFTWARE                                              
 800 SITE_DESCRIPTION: BINDING SITE FOR RESIDUE SR3 A 1                   
 800                                                                      
 800 SITE_IDENTIFIER: AC2                                                 
 800 EVIDENCE_CODE: SOFTWARE                                              
 800 SITE_DESCRIPTION: BINDING SITE FOR RESIDUE CIT A 290                 
 900                                                                      
 900 RELATED ENTRIES                                                      
 900 RELATED ID: 3RXX   RELATED DB: PDB                                   
 900 THE SAME PROTEIN COMPLEXED WITH 3-NPBA                               

>  <DBREF>
 3RXW A   26   289  UNP    Q9F663   BLKPC_KLEPN     26    289             

>  <SEQRES>
   1 A  264  THR ASN LEU VAL ALA GLU PRO PHE ALA LYS LEU GLU GLN          
   2 A  264  ASP PHE GLY GLY SER ILE GLY VAL TYR ALA MET ASP THR          
   3 A  264  GLY SER GLY ALA THR VAL SER TYR ARG ALA GLU GLU ARG          
   4 A  264  PHE PRO LEU CYS SER SER PHE LYS GLY PHE LEU ALA ALA          
   5 A  264  ALA VAL LEU ALA ARG SER GLN GLN GLN ALA GLY LEU LEU          
   6 A  264  ASP THR PRO ILE ARG TYR GLY LYS ASN ALA LEU VAL PRO          
   7 A  264  TRP SER PRO ILE SER GLU LYS TYR LEU THR THR GLY MET          
   8 A  264  THR VAL ALA GLU LEU SER ALA ALA ALA VAL GLN TYR SER          
   9 A  264  ASP ASN ALA ALA ALA ASN LEU LEU LEU LYS GLU LEU GLY          
  10 A  264  GLY PRO ALA GLY LEU THR ALA PHE MET ARG SER ILE GLY          
  11 A  264  ASP THR THR PHE ARG LEU ASP ARG TRP GLU LEU GLU LEU          
  12 A  264  ASN SER ALA ILE PRO GLY ASP ALA ARG ASP THR SER SER          
  13 A  264  PRO ARG ALA VAL THR GLU SER LEU GLN LYS LEU THR LEU          
  14 A  264  GLY SER ALA LEU ALA ALA PRO GLN ARG GLN GLN PHE VAL          
  15 A  264  ASP TRP LEU LYS GLY ASN THR THR GLY ASN HIS ARG ILE          
  16 A  264  ARG ALA ALA VAL PRO ALA ASP TRP ALA VAL GLY ASP LYS          
  17 A  264  THR GLY THR CYS GLY VAL TYR GLY THR ALA ASN ASP TYR          
  18 A  264  ALA VAL VAL TRP PRO THR GLY ARG ALA PRO ILE VAL LEU          
  19 A  264  ALA VAL TYR THR ARG ALA PRO ASN LYS ASP ASP LYS HIS          
  20 A  264  SER GLU ALA VAL ILE ALA ALA ALA ALA ARG LEU ALA LEU          
  21 A  264  GLU GLY LEU GLY                                              

>  <HET>
 SR3  A   1      21                                                       
 CIT  A 290      26                                                       

>  <HETNAM>
     SR3 (2S,3R)-4-(2-AMINO-2-OXOETHOXY)-3-(DIHYDROXY-LAMBDA~4~-          
   2 SR3  SULFANYL)-3-METHYL-4-OXO-2-{[(1E)-3-OXOPROP-1-EN-1-             
   3 SR3  YL]AMINO}BUTANOIC ACID                                          
     CIT CITRIC ACID                                                      

>  <FORMUL>
   2  SR3    C10 H16 N2 O8 S                                              
   3  CIT    C6 H8 O7                                                     
   4  HOH   *316(H2 O)                                                    

>  <HELIX>
   1   1 ALA A   30  GLY A   41  1                                  12    
   2   2 SER A   70  GLN A   84  1                                  15    
   3   3 GLY A   97  LEU A  101  5                                   5    
   4   4 SER A  105  TYR A  111  1                                   7    
   5   5 VAL A  118  TYR A  128  1                                  11    
   6   6 ASP A  130  GLY A  142  1                                  13    
   7   7 GLY A  142  ILE A  154  1                                  13    
   8   8 LEU A  166  SER A  170  5                                   5    
   9   9 SER A  181  LEU A  194  1                                  14    
  10  10 ALA A  199  GLY A  212  1                                  14    
  11  11 ARG A  219  VAL A  224  5                                   6    
  12  12 GLY A  238  THR A  242  5                                   5    
  13  13 SER A  273  LEU A  288  1                                  16    

>  <SHEET>
   1   A 5 THR A  56  TYR A  59  0                                        
   2   A 5 SER A  43  ASP A  50 -1  N  VAL A  46   O  TYR A  59           
   3   A 5 ILE A 257  ARG A 264 -1  O  ARG A 264   N  SER A  43           
   4   A 5 ALA A 243  TRP A 250 -1  N  VAL A 249   O  ILE A 257           
   5   A 5 ALA A 229  GLY A 235 -1  N  ALA A 229   O  TRP A 250           
   1   B 2 PHE A  65  PRO A  66  0                                        
   2   B 2 THR A 179  SER A 180 -1  O  SER A 180   N  PHE A  65           
   1   C 2 PRO A  93  ILE A  94  0                                        
   2   C 2 MET A 116  THR A 117 -1  O  MET A 116   N  ILE A  94           

>  <SSBOND>
   1 CYS A   68    CYS A  237                          1555   1555  2.13  

>  <LINK>
       CAJ SR3 A   1                 OG  SER A  69     1555   1555  1.42  

>  <CISPEP>
   1 GLU A  165    LEU A  166          0         6.58                     

>  <SITE>
   1 AC1 17 SER A  69  PRO A 103  TRP A 104  ASN A 131                    
   2 AC1 17 GLU A 165  LEU A 166  ASN A 169  ASP A 227                    
   3 AC1 17 TRP A 228  GLY A 235  THR A 236  PRO A 251                    
   4 AC1 17 THR A 252  CIT A 290  HOH A 313  HOH A 316                    
   5 AC1 17 HOH A 579                                                     
   1 AC2 14 SR3 A   1  SER A  69  TRP A 104  SER A 129                    
   2 AC2 14 THR A 215  ARG A 219  LYS A 233  THR A 234                    
   3 AC2 14 GLY A 235  THR A 236  ARG A 254  HOH A 298                    
   4 AC2 14 HOH A 312  HOH A 318                                          

>  <ORIGX1>
      1.000000  0.000000  0.000000        0.00000                         

>  <ORIGX2>
      0.000000  1.000000  0.000000        0.00000                         

>  <ORIGX3>
      0.000000  0.000000  1.000000        0.00000                         

>  <SCALE1>
      0.020387  0.000000  0.000000        0.00000                         

>  <SCALE2>
      0.000000  0.015086  0.000000        0.00000                         

>  <SCALE3>
      0.000000  0.000000  0.013932        0.00000                         

>  <MASTER>
      273    0    2   13    9    0    9    6 2322    1   50   21          

$$$$
