start_structures/Ligand_Substrate/Ligand_Complex_Stripped/TBE_6H2I.pdb
 OpenBabel08222315203D

 26 26  0  0  1  0  0  0  0  0999 V2000
   -3.2020  -13.9820   22.1300 N   0  0  0  0  0  0  0  0  0  0  0  0
   -2.5620  -14.4730   20.9040 C   0  0  2  0  0  0  0  0  0  0  0  0
   -2.3160  -13.4070   19.8350 C   0  0  0  0  0  0  0  0  0  0  0  0
   -1.6580  -13.7040   18.8650 O   0  0  0  0  0  0  0  0  0  0  0  0
   -3.3550  -15.6300   20.2730 C   0  0  0  0  0  0  0  0  0  0  0  0
   -3.8120  -16.5980   21.2560 O   0  0  0  0  0  0  0  0  0  0  0  0
   -5.5090  -19.8160   27.7490 S   0  0  0  0  0  0  0  0  0  0  0  0
   -6.8490  -19.7760   28.2770 O   0  0  0  0  0  0  0  0  0  0  0  0
   -4.6380  -20.4980   28.6730 O   0  0  0  0  0  0  0  0  0  0  0  0
   -5.4760  -20.5270   26.2260 C   0  0  1  0  0  0  0  0  0  0  0  0
   -6.2110  -19.4840   25.3330 C   0  0  1  0  0  0  0  0  0  0  0  0
   -5.4460  -18.9860   24.2130 N   0  0  0  0  0  0  0  0  0  0  0  0
   -4.9260  -17.7850   24.3460 C   0  0  0  0  0  0  0  0  0  0  0  0
   -4.0130  -20.6970   25.7900 C   0  0  0  0  0  0  0  0  0  0  0  0
   -6.1490  -21.9140   26.2350 C   0  0  0  0  0  0  0  0  0  0  0  0
   -5.5180  -22.9530   27.0810 N   0  0  0  0  0  0  0  0  0  0  0  0
   -4.2590  -23.4600   26.7200 N   0  0  0  0  0  0  0  0  0  0  0  0
   -3.9530  -24.4360   27.6860 N   0  0  0  0  0  0  0  0  0  0  0  0
   -4.9860  -24.5180   28.5520 C   0  0  0  0  0  0  0  0  0  0  0  0
   -5.9590  -23.6030   28.1680 C   0  0  0  0  0  0  0  0  0  0  0  0
   -7.5270  -19.8330   24.6960 C   0  0  0  0  0  0  0  0  0  0  0  0
   -8.5700  -19.5730   25.3290 O   0  0  0  0  0  0  0  0  0  0  0  0
   -7.5330  -20.3040   23.5310 O   0  0  0  0  0  0  0  0  0  0  0  0
   -4.5990  -16.9640   23.3680 C   0  0  0  0  0  0  0  0  0  0  0  0
   -4.7890  -17.2860   21.9850 C   0  0  0  0  0  0  0  0  0  0  0  0
   -5.0020  -16.3460   21.2870 O   0  0  0  0  0  0  0  0  0  0  0  0
  2  5  1  6  0  0  0
  2  1  1  0  0  0  0
  3  2  1  0  0  0  0
  4  3  2  0  0  0  0
  6 25  1  0  0  0  0
  6 26  1  0  0  0  0
  7  8  1  0  0  0  0
  7  9  1  0  0  0  0
  7 10  1  0  0  0  0
 10 11  1  0  0  0  0
 10 14  1  6  0  0  0
 10 15  1  0  0  0  0
 11 12  1  6  0  0  0
 11 21  1  0  0  0  0
 12 13  1  0  0  0  0
 13 24  2  0  0  0  0
 15 16  1  0  0  0  0
 16 17  1  0  0  0  0
 16 20  1  0  0  0  0
 17 18  2  0  0  0  0
 18 19  1  0  0  0  0
 19 20  2  0  0  0  0
 21 22  2  0  0  0  0
 21 23  1  0  0  0  0
 24 25  1  0  0  0  0
 25 26  1  0  0  0  0
M  END
>  <HEADER>
    HYDROLASE                               13-JUL-18   6H2I              

>  <TITLE>
    STRUCTURE OF BLAC FROM MYCOBACTERIUM TUBERCULOSIS BOUND TO THE TRANS- 
   2 ENAMINE ADDUCT OF TAZOBACTAM.                                        

>  <COMPND>
    MOL_ID: 1;                                                            
   2 MOLECULE: BETA-LACTAMASE;                                            
   3 CHAIN: A, B;                                                         
   4 EC: 3.5.2.6;                                                         
   5 ENGINEERED: YES                                                      

>  <SOURCE>
    MOL_ID: 1;                                                            
   2 ORGANISM_SCIENTIFIC: MYCOBACTERIUM TUBERCULOSIS;                     
   3 ORGANISM_TAXID: 1773;                                                
   4 GENE: BLAC, ERS027646_02769;                                         
   5 EXPRESSION_SYSTEM: ESCHERICHIA COLI BL21(DE3);                       
   6 EXPRESSION_SYSTEM_TAXID: 469008                                      

>  <KEYWDS>
    HYDROLASE                                                             

>  <EXPDTA>
    X-RAY DIFFRACTION                                                     

>  <AUTHOR>
    R.TASSONI,N.S.PANNU,M.UBBINK                                          

>  <REVDAT>
   2   27-FEB-19 6H2I    1       JRNL                                     
   1   23-JAN-19 6H2I    0                                                

>  <JRNL>
      AUTH   R.TASSONI,A.BLOK,N.S.PANNU,M.UBBINK                          
      TITL   NEW CONFORMATIONS OF ACYLATION ADDUCTS OF INHIBITORS OF      
      TITL 2 BETA-LACTAMASE FROM MYCOBACTERIUM TUBERCULOSIS.              
      REF    BIOCHEMISTRY                  V.  58   997 2019              
      REFN                   ISSN 1520-4995                               
      PMID   30632739                                                     
      DOI    10.1021/ACS.BIOCHEM.8B01085                                  

>  <REMARK>
   2                                                                      
   2 RESOLUTION.    2.72 ANGSTROMS.                                       
   3                                                                      
   3 REFINEMENT.                                                          
   3   PROGRAM     : REFMAC 5.8.0158                                      
   3   AUTHORS     : MURSHUDOV,SKUBAK,LEBEDEV,PANNU,STEINER,              
   3               : NICHOLLS,WINN,LONG,VAGIN                             
   3                                                                      
   3    REFINEMENT TARGET : NULL                                          
   3                                                                      
   3  DATA USED IN REFINEMENT.                                            
   3   RESOLUTION RANGE HIGH (ANGSTROMS) : 2.72                           
   3   RESOLUTION RANGE LOW  (ANGSTROMS) : 40.32                          
   3   DATA CUTOFF            (SIGMA(F)) : NULL                           
   3   COMPLETENESS FOR RANGE        (%) : 84.3                           
   3   NUMBER OF REFLECTIONS             : 10129                          
   3                                                                      
   3  FIT TO DATA USED IN REFINEMENT.                                     
   3   CROSS-VALIDATION METHOD          : THROUGHOUT                      
   3   FREE R VALUE TEST SET SELECTION  : RANDOM                          
   3   R VALUE     (WORKING + TEST SET) : 0.206                           
   3   R VALUE            (WORKING SET) : 0.203                           
   3   FREE R VALUE                     : 0.265                           
   3   FREE R VALUE TEST SET SIZE   (%) : 5.200                           
   3   FREE R VALUE TEST SET COUNT      : 560                             
   3                                                                      
   3  FIT IN THE HIGHEST RESOLUTION BIN.                                  
   3   TOTAL NUMBER OF BINS USED           : 20                           
   3   BIN RESOLUTION RANGE HIGH       (A) : 2.72                         
   3   BIN RESOLUTION RANGE LOW        (A) : 2.79                         
   3   REFLECTION IN BIN     (WORKING SET) : 396                          
   3   BIN COMPLETENESS (WORKING+TEST) (%) : 45.05                        
   3   BIN R VALUE           (WORKING SET) : 0.2960                       
   3   BIN FREE R VALUE SET COUNT          : 27                           
   3   BIN FREE R VALUE                    : 0.3650                       
   3                                                                      
   3  NUMBER OF NON-HYDROGEN ATOMS USED IN REFINEMENT.                    
   3   PROTEIN ATOMS            : 4030                                    
   3   NUCLEIC ACID ATOMS       : 0                                       
   3   HETEROGEN ATOMS          : 48                                      
   3   SOLVENT ATOMS            : 6                                       
   3                                                                      
   3  B VALUES.                                                           
   3   FROM WILSON PLOT           (A**2) : NULL                           
   3   MEAN B VALUE      (OVERALL, A**2) : 24.70                          
   3   OVERALL ANISOTROPIC B VALUE.                                       
   3    B11 (A**2) : -3.61000                                             
   3    B22 (A**2) : 3.57000                                              
   3    B33 (A**2) : -0.41000                                             
   3    B12 (A**2) : 0.57000                                              
   3    B13 (A**2) : 0.27000                                              
   3    B23 (A**2) : 0.96000                                              
   3                                                                      
   3  ESTIMATED OVERALL COORDINATE ERROR.                                 
   3   ESU BASED ON R VALUE                            (A): NULL          
   3   ESU BASED ON FREE R VALUE                       (A): 0.493         
   3   ESU BASED ON MAXIMUM LIKELIHOOD                 (A): 0.316         
   3   ESU FOR B VALUES BASED ON MAXIMUM LIKELIHOOD (A**2): 15.728        
   3                                                                      
   3 CORRELATION COEFFICIENTS.                                            
   3   CORRELATION COEFFICIENT FO-FC      : 0.919                         
   3   CORRELATION COEFFICIENT FO-FC FREE : 0.871                         
   3                                                                      
   3  RMS DEVIATIONS FROM IDEAL VALUES        COUNT    RMS    WEIGHT      
   3   BOND LENGTHS REFINED ATOMS        (A):  4158 ; 0.011 ; 0.019       
   3   BOND LENGTHS OTHERS               (A):  3850 ; 0.002 ; 0.020       
   3   BOND ANGLES REFINED ATOMS   (DEGREES):  5668 ; 1.512 ; 1.976       
   3   BOND ANGLES OTHERS          (DEGREES):  8866 ; 0.986 ; 3.000       
   3   TORSION ANGLES, PERIOD 1    (DEGREES):   534 ; 6.720 ; 5.000       
   3   TORSION ANGLES, PERIOD 2    (DEGREES):   180 ;38.285 ;23.222       
   3   TORSION ANGLES, PERIOD 3    (DEGREES):   618 ;15.148 ;15.000       
   3   TORSION ANGLES, PERIOD 4    (DEGREES):    38 ;20.327 ;15.000       
   3   CHIRAL-CENTER RESTRAINTS       (A**3):   652 ; 0.074 ; 0.200       
   3   GENERAL PLANES REFINED ATOMS      (A):  4730 ; 0.006 ; 0.021       
   3   GENERAL PLANES OTHERS             (A):   864 ; 0.003 ; 0.020       
   3   NON-BONDED CONTACTS REFINED ATOMS (A):  NULL ;  NULL ;  NULL       
   3   NON-BONDED CONTACTS OTHERS        (A):  NULL ;  NULL ;  NULL       
   3   NON-BONDED TORSION REFINED ATOMS  (A):  NULL ;  NULL ;  NULL       
   3   NON-BONDED TORSION OTHERS         (A):  NULL ;  NULL ;  NULL       
   3   H-BOND (X...Y) REFINED ATOMS      (A):  NULL ;  NULL ;  NULL       
   3   H-BOND (X...Y) OTHERS             (A):  NULL ;  NULL ;  NULL       
   3   POTENTIAL METAL-ION REFINED ATOMS (A):  NULL ;  NULL ;  NULL       
   3   POTENTIAL METAL-ION OTHERS        (A):  NULL ;  NULL ;  NULL       
   3   SYMMETRY VDW REFINED ATOMS        (A):  NULL ;  NULL ;  NULL       
   3   SYMMETRY VDW OTHERS               (A):  NULL ;  NULL ;  NULL       
   3   SYMMETRY H-BOND REFINED ATOMS     (A):  NULL ;  NULL ;  NULL       
   3   SYMMETRY H-BOND OTHERS            (A):  NULL ;  NULL ;  NULL       
   3   SYMMETRY METAL-ION REFINED ATOMS  (A):  NULL ;  NULL ;  NULL       
   3   SYMMETRY METAL-ION OTHERS         (A):  NULL ;  NULL ;  NULL       
   3                                                                      
   3  ISOTROPIC THERMAL FACTOR RESTRAINTS.     COUNT   RMS    WEIGHT      
   3   MAIN-CHAIN BOND REFINED ATOMS  (A**2):  2144 ; 1.257 ; 2.467       
   3   MAIN-CHAIN BOND OTHER ATOMS    (A**2):  2141 ; 1.252 ; 2.466       
   3   MAIN-CHAIN ANGLE REFINED ATOMS (A**2):  2674 ; 2.104 ; 3.697       
   3   MAIN-CHAIN ANGLE OTHER ATOMS   (A**2):  2675 ; 2.104 ; 3.699       
   3   SIDE-CHAIN BOND REFINED ATOMS  (A**2):  2014 ; 1.200 ; 2.593       
   3   SIDE-CHAIN BOND OTHER ATOMS    (A**2):  2015 ; 1.199 ; 2.593       
   3   SIDE-CHAIN ANGLE REFINED ATOMS (A**2):  NULL ;  NULL ;  NULL       
   3   SIDE-CHAIN ANGLE OTHER ATOMS   (A**2):  2995 ; 1.921 ; 3.860       
   3   LONG RANGE B REFINED ATOMS     (A**2):  4522 ; 3.643 ;29.642       
   3   LONG RANGE B OTHER ATOMS       (A**2):  4523 ; 3.642 ;29.645       
   3                                                                      
   3 ANISOTROPIC THERMAL FACTOR RESTRAINTS.    COUNT   RMS   WEIGHT       
   3   RIGID-BOND RESTRAINTS          (A**2):  NULL ;  NULL ;  NULL       
   3   SPHERICITY; FREE ATOMS         (A**2):  NULL ;  NULL ;  NULL       
   3   SPHERICITY; BONDED ATOMS       (A**2):  NULL ;  NULL ;  NULL       
   3                                                                      
   3  NCS RESTRAINTS STATISTICS                                           
   3   NCS TYPE: LOCAL                                                    
   3   NUMBER OF DIFFERENT NCS PAIRS  : 1                                 
   3  GROUP  CHAIN1    RANGE     CHAIN2     RANGE    COUNT RMS  WEIGHT    
   3    1     A    29    294       B    29    294   17020  0.07  0.05     
   3                                                                      
   3  TLS DETAILS                                                         
   3   NUMBER OF TLS GROUPS  : NULL                                       
   3                                                                      
   3  BULK SOLVENT MODELLING.                                             
   3   METHOD USED : NULL                                                 
   3   PARAMETERS FOR MASK CALCULATION                                    
   3   VDW PROBE RADIUS   : 1.20                                          
   3   ION PROBE RADIUS   : 0.80                                          
   3   SHRINKAGE RADIUS   : 0.80                                          
   3                                                                      
   3  OTHER REFINEMENT REMARKS: HYDROGENS HAVE BEEN ADDED IN THE RIDING   
   3  POSITIONS                                                           
   4                                                                      
   4 6H2I COMPLIES WITH FORMAT V. 3.30, 13-JUL-11                         
 100                                                                      
 100 THIS ENTRY HAS BEEN PROCESSED BY PDBE ON 13-JUL-18.                  
 100 THE DEPOSITION ID IS D_1200010943.                                   
 200                                                                      
 200 EXPERIMENTAL DETAILS                                                 
 200  EXPERIMENT TYPE                : X-RAY DIFFRACTION                  
 200  DATE OF DATA COLLECTION        : 01-APR-16                          
 200  TEMPERATURE           (KELVIN) : 100                                
 200  PH                             : NULL                               
 200  NUMBER OF CRYSTALS USED        : 1                                  
 200                                                                      
 200  SYNCHROTRON              (Y/N) : Y                                  
 200  RADIATION SOURCE               : ESRF                               
 200  BEAMLINE                       : ID29                               
 200  X-RAY GENERATOR MODEL          : NULL                               
 200  MONOCHROMATIC OR LAUE    (M/L) : M                                  
 200  WAVELENGTH OR RANGE        (A) : 0.9762                             
 200  MONOCHROMATOR                  : NULL                               
 200  OPTICS                         : NULL                               
 200                                                                      
 200  DETECTOR TYPE                  : PIXEL                              
 200  DETECTOR MANUFACTURER          : DECTRIS PILATUS3 6M                
 200  INTENSITY-INTEGRATION SOFTWARE : XDS                                
 200  DATA SCALING SOFTWARE          : AIMLESS                            
 200                                                                      
 200  NUMBER OF UNIQUE REFLECTIONS   : 10698                              
 200  RESOLUTION RANGE HIGH      (A) : 2.720                              
 200  RESOLUTION RANGE LOW       (A) : 40.320                             
 200  REJECTION CRITERIA  (SIGMA(I)) : NULL                               
 200                                                                      
 200 OVERALL.                                                             
 200  COMPLETENESS FOR RANGE     (%) : 84.3                               
 200  DATA REDUNDANCY                : 1.700                              
 200  R MERGE                    (I) : NULL                               
 200  R SYM                      (I) : NULL                               
 200  <I/SIGMA(I)> FOR THE DATA SET  : 9.5000                             
 200                                                                      
 200 IN THE HIGHEST RESOLUTION SHELL.                                     
 200  HIGHEST RESOLUTION SHELL, RANGE HIGH (A) : 2.72                     
 200  HIGHEST RESOLUTION SHELL, RANGE LOW  (A) : 2.82                     
 200  COMPLETENESS FOR SHELL     (%) : 47.0                               
 200  DATA REDUNDANCY IN SHELL       : 1.70                               
 200  R MERGE FOR SHELL          (I) : NULL                               
 200  R SYM FOR SHELL            (I) : NULL                               
 200  <I/SIGMA(I)> FOR SHELL         : 4.700                              
 200                                                                      
 200 DIFFRACTION PROTOCOL: SINGLE WAVELENGTH                              
 200 METHOD USED TO DETERMINE THE STRUCTURE: MOLECULAR REPLACEMENT        
 200 SOFTWARE USED: MOLREP                                                
 200 STARTING MODEL: 2GDN                                                 
 200                                                                      
 200 REMARK: NULL                                                         
 280                                                                      
 280 CRYSTAL                                                              
 280 SOLVENT CONTENT, VS   (%): 40.61                                     
 280 MATTHEWS COEFFICIENT, VM (ANGSTROMS**3/DA): 2.07                     
 280                                                                      
 280 CRYSTALLIZATION CONDITIONS: 0.1 M SODIUM ACETATE BUFFER, PH 5.0      
 280  25% W/V PEG1500, VAPOR DIFFUSION, SITTING DROP, TEMPERATURE         
 280  293.15K                                                             
 290                                                                      
 290 CRYSTALLOGRAPHIC SYMMETRY                                            
 290 SYMMETRY OPERATORS FOR SPACE GROUP: P 1                              
 290                                                                      
 290      SYMOP   SYMMETRY                                                
 290     NNNMMM   OPERATOR                                                
 290       1555   X,Y,Z                                                   
 290                                                                      
 290     WHERE NNN -> OPERATOR NUMBER                                     
 290           MMM -> TRANSLATION VECTOR                                  
 290                                                                      
 290 CRYSTALLOGRAPHIC SYMMETRY TRANSFORMATIONS                            
 290 THE FOLLOWING TRANSFORMATIONS OPERATE ON THE ATOM/HETATM             
 290 RECORDS IN THIS ENTRY TO PRODUCE CRYSTALLOGRAPHICALLY                
 290 RELATED MOLECULES.                                                   
 290   SMTRY1   1  1.000000  0.000000  0.000000        0.00000            
 290   SMTRY2   1  0.000000  1.000000  0.000000        0.00000            
 290   SMTRY3   1  0.000000  0.000000  1.000000        0.00000            
 290                                                                      
 290 REMARK: NULL                                                         
 300                                                                      
 300 BIOMOLECULE: 1, 2                                                    
 300 SEE REMARK 350 FOR THE AUTHOR PROVIDED AND/OR PROGRAM                
 300 GENERATED ASSEMBLY INFORMATION FOR THE STRUCTURE IN                  
 300 THIS ENTRY. THE REMARK MAY ALSO PROVIDE INFORMATION ON               
 300 BURIED SURFACE AREA.                                                 
 350                                                                      
 350 COORDINATES FOR A COMPLETE MULTIMER REPRESENTING THE KNOWN           
 350 BIOLOGICALLY SIGNIFICANT OLIGOMERIZATION STATE OF THE                
 350 MOLECULE CAN BE GENERATED BY APPLYING BIOMT TRANSFORMATIONS          
 350 GIVEN BELOW.  BOTH NON-CRYSTALLOGRAPHIC AND                          
 350 CRYSTALLOGRAPHIC OPERATIONS ARE GIVEN.                               
 350                                                                      
 350 BIOMOLECULE: 1                                                       
 350 AUTHOR DETERMINED BIOLOGICAL UNIT: MONOMERIC                         
 350 APPLY THE FOLLOWING TO CHAINS: A                                     
 350   BIOMT1   1  1.000000  0.000000  0.000000        0.00000            
 350   BIOMT2   1  0.000000  1.000000  0.000000        0.00000            
 350   BIOMT3   1  0.000000  0.000000  1.000000        0.00000            
 350                                                                      
 350 BIOMOLECULE: 2                                                       
 350 AUTHOR DETERMINED BIOLOGICAL UNIT: MONOMERIC                         
 350 APPLY THE FOLLOWING TO CHAINS: B                                     
 350   BIOMT1   1  1.000000  0.000000  0.000000        0.00000            
 350   BIOMT2   1  0.000000  1.000000  0.000000        0.00000            
 350   BIOMT3   1  0.000000  0.000000  1.000000        0.00000            
 465                                                                      
 465 MISSING RESIDUES                                                     
 465 THE FOLLOWING RESIDUES WERE NOT LOCATED IN THE                       
 465 EXPERIMENT. (M=MODEL NUMBER; RES=RESIDUE NAME; C=CHAIN               
 465 IDENTIFIER; SSSEQ=SEQUENCE NUMBER; I=INSERTION CODE.)                
 465                                                                      
 465   M RES C SSSEQI                                                     
 465     MET A    28                                                      
 465     HIS A   298                                                      
 465     HIS A   299                                                      
 465     HIS A   300                                                      
 465     HIS A   301                                                      
 465     MET B    28                                                      
 465     HIS B   296                                                      
 465     HIS B   297                                                      
 465     HIS B   298                                                      
 465     HIS B   299                                                      
 465     HIS B   300                                                      
 465     HIS B   301                                                      
 500                                                                      
 500 GEOMETRY AND STEREOCHEMISTRY                                         
 500 SUBTOPIC: CLOSE CONTACTS IN SAME ASYMMETRIC UNIT                     
 500                                                                      
 500 THE FOLLOWING ATOMS ARE IN CLOSE CONTACT.                            
 500                                                                      
 500  ATM1  RES C  SSEQI   ATM2  RES C  SSEQI           DISTANCE          
 500   OG   SER A    70     O8   TBE A   501              1.22            
 500   OG   SER B    70     O8   TBE B   501              1.41            
 500   CB   SER A    70     O8   TBE A   501              2.06            
 500                                                                      
 500 REMARK: NULL                                                         
 500                                                                      
 500 GEOMETRY AND STEREOCHEMISTRY                                         
 500 SUBTOPIC: COVALENT BOND ANGLES                                       
 500                                                                      
 500 THE STEREOCHEMICAL PARAMETERS OF THE FOLLOWING RESIDUES              
 500 HAVE VALUES WHICH DEVIATE FROM EXPECTED VALUES BY MORE               
 500 THAN 6*RMSD (M=MODEL NUMBER; RES=RESIDUE NAME; C=CHAIN               
 500 IDENTIFIER; SSEQ=SEQUENCE NUMBER; I=INSERTION CODE).                 
 500                                                                      
 500 STANDARD TABLE:                                                      
 500 FORMAT: (10X,I3,1X,A3,1X,A1,I4,A1,3(1X,A4,2X),12X,F5.1)              
 500                                                                      
 500 EXPECTED VALUES PROTEIN: ENGH AND HUBER, 1999                        
 500 EXPECTED VALUES NUCLEIC ACID: CLOWNEY ET AL 1996                     
 500                                                                      
 500  M RES CSSEQI ATM1   ATM2   ATM3                                     
 500    ARG A  40   NE  -  CZ  -  NH1 ANGL. DEV. =   3.0 DEGREES          
 500                                                                      
 500 REMARK: NULL                                                         
 500                                                                      
 500 GEOMETRY AND STEREOCHEMISTRY                                         
 500 SUBTOPIC: TORSION ANGLES                                             
 500                                                                      
 500 TORSION ANGLES OUTSIDE THE EXPECTED RAMACHANDRAN REGIONS:            
 500 (M=MODEL NUMBER; RES=RESIDUE NAME; C=CHAIN IDENTIFIER;               
 500 SSEQ=SEQUENCE NUMBER; I=INSERTION CODE).                             
 500                                                                      
 500 STANDARD TABLE:                                                      
 500 FORMAT:(10X,I3,1X,A3,1X,A1,I4,A1,4X,F7.2,3X,F7.2)                    
 500                                                                      
 500 EXPECTED VALUES: GJ KLEYWEGT AND TA JONES (1996). PHI/PSI-           
 500 CHOLOGY: RAMACHANDRAN REVISITED. STRUCTURE 4, 1395 - 1400            
 500                                                                      
 500  M RES CSSEQI        PSI       PHI                                   
 500    THR A  52     -162.58   -110.93                                   
 500    CYS A  69     -144.74     57.09                                   
 500    ARG A 222     -116.51   -116.88                                   
 500    ARG A 267       53.60   -143.61                                   
 500    THR B  52     -163.69   -110.35                                   
 500    CYS B  69     -144.31     56.67                                   
 500    ARG B 222     -116.65   -117.23                                   
 500    ARG B 267       56.62   -144.77                                   
 500                                                                      
 500 REMARK: NULL                                                         
 800                                                                      
 800 SITE                                                                 
 800 SITE_IDENTIFIER: AC1                                                 
 800 EVIDENCE_CODE: SOFTWARE                                              
 800 SITE_DESCRIPTION: binding site for residue TBE A 501                 
 800                                                                      
 800 SITE_IDENTIFIER: AC2                                                 
 800 EVIDENCE_CODE: SOFTWARE                                              
 800 SITE_DESCRIPTION: binding site for residue ACT A 502                 
 800                                                                      
 800 SITE_IDENTIFIER: AC3                                                 
 800 EVIDENCE_CODE: SOFTWARE                                              
 800 SITE_DESCRIPTION: binding site for residue ACT B 502                 
 800                                                                      
 800 SITE_IDENTIFIER: AC4                                                 
 800 EVIDENCE_CODE: SOFTWARE                                              
 800 SITE_DESCRIPTION: binding site for Di-peptide TBE B 501 and SER B    
 800  70                                                                  

>  <DBREF1>
 6H2I A   29   293  UNP                  A0A0T9EA39_MYCTX                 
 6H2I B   29   293  UNP                  A0A0T9EA39_MYCTX                 

>  <DBREF2>
 6H2I A     A0A0T9EA39                          6         270             
 6H2I B     A0A0T9EA39                          6         270             

>  <SEQADV>
 6H2I MET A   28  UNP  A0A0T9EA3           INITIATING METHIONINE          
 6H2I LEU A  294  UNP  A0A0T9EA3           EXPRESSION TAG                 
 6H2I GLU A  295  UNP  A0A0T9EA3           EXPRESSION TAG                 
 6H2I HIS A  296  UNP  A0A0T9EA3           EXPRESSION TAG                 
 6H2I HIS A  297  UNP  A0A0T9EA3           EXPRESSION TAG                 
 6H2I HIS A  298  UNP  A0A0T9EA3           EXPRESSION TAG                 
 6H2I HIS A  299  UNP  A0A0T9EA3           EXPRESSION TAG                 
 6H2I HIS A  300  UNP  A0A0T9EA3           EXPRESSION TAG                 
 6H2I HIS A  301  UNP  A0A0T9EA3           EXPRESSION TAG                 
 6H2I MET B   28  UNP  A0A0T9EA3           INITIATING METHIONINE          
 6H2I LEU B  294  UNP  A0A0T9EA3           EXPRESSION TAG                 
 6H2I GLU B  295  UNP  A0A0T9EA3           EXPRESSION TAG                 
 6H2I HIS B  296  UNP  A0A0T9EA3           EXPRESSION TAG                 
 6H2I HIS B  297  UNP  A0A0T9EA3           EXPRESSION TAG                 
 6H2I HIS B  298  UNP  A0A0T9EA3           EXPRESSION TAG                 
 6H2I HIS B  299  UNP  A0A0T9EA3           EXPRESSION TAG                 
 6H2I HIS B  300  UNP  A0A0T9EA3           EXPRESSION TAG                 
 6H2I HIS B  301  UNP  A0A0T9EA3           EXPRESSION TAG                 

>  <SEQRES>
   1 A  274  MET ASP LEU ALA ASP ARG PHE ALA GLU LEU GLU ARG ARG          
   2 A  274  TYR ASP ALA ARG LEU GLY VAL TYR VAL PRO ALA THR GLY          
   3 A  274  THR THR ALA ALA ILE GLU TYR ARG ALA ASP GLU ARG PHE          
   4 A  274  ALA PHE CYS SER THR PHE LYS ALA PRO LEU VAL ALA ALA          
   5 A  274  VAL LEU HIS GLN ASN PRO LEU THR HIS LEU ASP LYS LEU          
   6 A  274  ILE THR TYR THR SER ASP ASP ILE ARG SER ILE SER PRO          
   7 A  274  VAL ALA GLN GLN HIS VAL GLN THR GLY MET THR ILE GLY          
   8 A  274  GLN LEU CYS ASP ALA ALA ILE ARG TYR SER ASP GLY THR          
   9 A  274  ALA ALA ASN LEU LEU LEU ALA ASP LEU GLY GLY PRO GLY          
  10 A  274  GLY GLY THR ALA ALA PHE THR GLY TYR LEU ARG SER LEU          
  11 A  274  GLY ASP THR VAL SER ARG LEU ASP ALA GLU GLU PRO GLU          
  12 A  274  LEU ASN ARG ASP PRO PRO GLY ASP GLU ARG ASP THR THR          
  13 A  274  THR PRO HIS ALA ILE ALA LEU VAL LEU GLN GLN LEU VAL          
  14 A  274  LEU GLY ASN ALA LEU PRO PRO ASP LYS ARG ALA LEU LEU          
  15 A  274  THR ASP TRP MET ALA ARG ASN THR THR GLY ALA LYS ARG          
  16 A  274  ILE ARG ALA GLY PHE PRO ALA ASP TRP LYS VAL ILE ASP          
  17 A  274  LYS THR GLY THR GLY ASP TYR GLY ARG ALA ASN ASP ILE          
  18 A  274  ALA VAL VAL TRP SER PRO THR GLY VAL PRO TYR VAL VAL          
  19 A  274  ALA VAL MET SER ASP ARG ALA GLY GLY GLY TYR ASP ALA          
  20 A  274  GLU PRO ARG GLU ALA LEU LEU ALA GLU ALA ALA THR CYS          
  21 A  274  VAL ALA GLY VAL LEU ALA LEU GLU HIS HIS HIS HIS HIS          
  22 A  274  HIS                                                          
   1 B  274  MET ASP LEU ALA ASP ARG PHE ALA GLU LEU GLU ARG ARG          
   2 B  274  TYR ASP ALA ARG LEU GLY VAL TYR VAL PRO ALA THR GLY          
   3 B  274  THR THR ALA ALA ILE GLU TYR ARG ALA ASP GLU ARG PHE          
   4 B  274  ALA PHE CYS SER THR PHE LYS ALA PRO LEU VAL ALA ALA          
   5 B  274  VAL LEU HIS GLN ASN PRO LEU THR HIS LEU ASP LYS LEU          
   6 B  274  ILE THR TYR THR SER ASP ASP ILE ARG SER ILE SER PRO          
   7 B  274  VAL ALA GLN GLN HIS VAL GLN THR GLY MET THR ILE GLY          
   8 B  274  GLN LEU CYS ASP ALA ALA ILE ARG TYR SER ASP GLY THR          
   9 B  274  ALA ALA ASN LEU LEU LEU ALA ASP LEU GLY GLY PRO GLY          
  10 B  274  GLY GLY THR ALA ALA PHE THR GLY TYR LEU ARG SER LEU          
  11 B  274  GLY ASP THR VAL SER ARG LEU ASP ALA GLU GLU PRO GLU          
  12 B  274  LEU ASN ARG ASP PRO PRO GLY ASP GLU ARG ASP THR THR          
  13 B  274  THR PRO HIS ALA ILE ALA LEU VAL LEU GLN GLN LEU VAL          
  14 B  274  LEU GLY ASN ALA LEU PRO PRO ASP LYS ARG ALA LEU LEU          
  15 B  274  THR ASP TRP MET ALA ARG ASN THR THR GLY ALA LYS ARG          
  16 B  274  ILE ARG ALA GLY PHE PRO ALA ASP TRP LYS VAL ILE ASP          
  17 B  274  LYS THR GLY THR GLY ASP TYR GLY ARG ALA ASN ASP ILE          
  18 B  274  ALA VAL VAL TRP SER PRO THR GLY VAL PRO TYR VAL VAL          
  19 B  274  ALA VAL MET SER ASP ARG ALA GLY GLY GLY TYR ASP ALA          
  20 B  274  GLU PRO ARG GLU ALA LEU LEU ALA GLU ALA ALA THR CYS          
  21 B  274  VAL ALA GLY VAL LEU ALA LEU GLU HIS HIS HIS HIS HIS          
  22 B  274  HIS                                                          

>  <HET>
 TBE  A 501      20                                                       
 ACT  A 502       4                                                       
 TBE  B 501      20                                                       
 ACT  B 502       4                                                       

>  <HETNAM>
     TBE TAZOBACTAM INTERMEDIATE                                          
     ACT ACETATE ION                                                      

>  <FORMUL>
   3  TBE    2(C10 H14 N4 O5 S)                                           
   4  ACT    2(C2 H3 O2 1-)                                               
   7  HOH   *6(H2 O)                                                      

>  <HELIX>
   1 AA1 ASP A   29  ASP A   42  1                                  14    
   2 AA2 CYS A   69  THR A   71  5                                   3    
   3 AA3 PHE A   72  ASN A   84  1                                  13    
   4 AA4 PRO A   85  ASP A   90  5                                   6    
   5 AA5 THR A   96  ILE A  100  5                                   5    
   6 AA6 SER A  104  HIS A  110  1                                   7    
   7 AA7 ILE A  117  TYR A  127  1                                  11    
   8 AA8 ASP A  129  GLY A  142  1                                  14    
   9 AA9 GLY A  145  LEU A  157  1                                  13    
  10 AB1 PRO A  169  ASP A  174  5                                   6    
  11 AB2 THR A  184  GLY A  198  1                                  15    
  12 AB3 PRO A  202  ARG A  215  1                                  14    
  13 AB4 ARG A  222  PHE A  227  5                                   6    
  14 AB5 ARG A  267  GLY A  271  5                                   5    
  15 AB6 ARG A  277  LEU A  294  1                                  18    
  16 AB7 LEU B   30  ASP B   42  1                                  13    
  17 AB8 CYS B   69  THR B   71  5                                   3    
  18 AB9 PHE B   72  ASN B   84  1                                  13    
  19 AC1 PRO B   85  ASP B   90  5                                   6    
  20 AC2 THR B   96  ILE B  100  5                                   5    
  21 AC3 ILE B  117  TYR B  127  1                                  11    
  22 AC4 ASP B  129  GLY B  142  1                                  14    
  23 AC5 GLY B  145  LEU B  157  1                                  13    
  24 AC6 PRO B  169  ASP B  174  5                                   6    
  25 AC7 THR B  184  GLY B  198  1                                  15    
  26 AC8 PRO B  202  ARG B  215  1                                  14    
  27 AC9 ARG B  222  PHE B  227  5                                   6    
  28 AD1 ARG B  267  GLY B  271  5                                   5    
  29 AD2 ARG B  277  LEU B  294  1                                  18    

>  <SHEET>
   1 AA1 5 ILE A  58  TYR A  60  0                                        
   2 AA1 5 ARG A  44  VAL A  49 -1  N  VAL A  49   O  ILE A  58           
   3 AA1 5 PRO A 258  ASP A 266 -1  O  MET A 264   N  GLY A  46           
   4 AA1 5 ARG A 244  TRP A 252 -1  N  ALA A 249   O  VAL A 261           
   5 AA1 5 LYS A 232  GLY A 240 -1  N  GLY A 238   O  ASN A 246           
   1 AA2 2 PHE A  66  ALA A  67  0                                        
   2 AA2 2 THR A 182  THR A 183 -1  O  THR A 183   N  PHE A  66           
   1 AA3 2 LEU A  92  ILE A  93  0                                        
   2 AA3 2 MET A 115  THR A 116 -1  O  MET A 115   N  ILE A  93           
   1 AA4 5 ILE B  58  TYR B  60  0                                        
   2 AA4 5 ARG B  44  VAL B  49 -1  N  VAL B  49   O  ILE B  58           
   3 AA4 5 PRO B 258  ASP B 266 -1  O  MET B 264   N  GLY B  46           
   4 AA4 5 ARG B 244  TRP B 252 -1  N  VAL B 251   O  TYR B 259           
   5 AA4 5 LYS B 232  GLY B 240 -1  N  GLY B 238   O  ASN B 246           
   1 AA5 2 PHE B  66  ALA B  67  0                                        
   2 AA5 2 THR B 182  THR B 183 -1  O  THR B 183   N  PHE B  66           
   1 AA6 2 LEU B  92  ILE B  93  0                                        
   2 AA6 2 MET B 115  THR B 116 -1  O  MET B 115   N  ILE B  93           

>  <LINK>
       OG  SER A  70                 C7  TBE A 501     1555   1555  1.40  
       OG  SER B  70                 C7  TBE B 501     1555   1555  1.39  

>  <CISPEP>
   1 GLU A  168    PRO A  169          0         1.62                     
   2 GLU B  168    PRO B  169          0         1.12                     

>  <SITE>
   1 AC1 11 SER A  70  SER A 102  ILE A 103  SER A 128                    
   2 AC1 11 GLU A 168  ASN A 172  ARG A 173  GLY A 238                    
   3 AC1 11 THR A 239  ASP A 241  ACT A 502                               
   1 AC2  7 SER A  70  SER A 128  LYS A 236  THR A 237                    
   2 AC2  7 GLY A 238  THR A 239  TBE A 501                               
   1 AC3  7 SER B  70  SER B 128  LYS B 236  THR B 237                    
   2 AC3  7 GLY B 238  THR B 239  TBE B 501                               
   1 AC4 16 PHE B  68  CYS B  69  THR B  71  PHE B  72                    
   2 AC4 16 LYS B  73  ILE B 103  SER B 128  GLU B 168                    
   3 AC4 16 PRO B 169  ASN B 172  ARG B 173  LYS B 236                    
   4 AC4 16 THR B 237  THR B 239  ASP B 241  ACT B 502                    

>  <ORIGX1>
      1.000000  0.000000  0.000000        0.00000                         

>  <ORIGX2>
      0.000000  1.000000  0.000000        0.00000                         

>  <ORIGX3>
      0.000000  0.000000  1.000000        0.00000                         

>  <SCALE1>
      0.025232  0.000350  0.000079        0.00000                         

>  <SCALE2>
      0.000000  0.024085  0.005929        0.00000                         

>  <SCALE3>
      0.000000  0.000000  0.013477        0.00000                         

>  <MASTER>
      326    0    4   29   18    0   11    6 4084    2   50   44          

$$$$
