start_structures/Ligand_Substrate/Ligand_Complex_Stripped/TBI_1RCJ.pdb
 OpenBabel08222315203D

 26 26  0  0  1  0  0  0  0  0999 V2000
   33.5500   60.4140    8.6540 N   0  0  0  0  0  0  0  0  0  0  0  0
   33.0790   59.2680    7.8760 C   0  0  2  0  0  0  0  0  0  0  0  0
   33.5000   57.8950    8.4010 C   0  0  0  0  0  0  0  0  0  0  0  0
   33.0030   56.8710    7.9240 O   0  0  0  0  0  0  0  0  0  0  0  0
   33.5420   59.3940    6.4170 C   0  0  0  0  0  0  0  0  0  0  0  0
   32.9040   60.4660    5.7460 O   0  0  0  0  0  0  0  0  0  0  0  0
   34.1370   62.5730   -0.4880 C   0  0  0  0  0  0  0  0  0  0  0  0
   34.4700   61.3090   -0.2390 C   0  0  0  0  0  0  0  0  0  0  0  0
   35.0730   61.2530    0.9480 N   0  0  0  0  0  0  0  0  0  0  0  0
   35.1350   62.3790    1.4450 N   0  0  0  0  0  0  0  0  0  0  0  0
   34.5480   63.2510    0.5810 N   0  0  0  0  0  0  0  0  0  0  0  0
   34.4830   64.7090    0.7850 C   0  0  0  0  0  0  0  0  0  0  0  0
   33.1520   65.2680    1.3100 C   0  0  1  0  0  0  0  0  0  0  0  0
   33.3690   67.0730    1.5670 S   0  0  0  0  0  0  0  0  0  0  0  0
   33.9300   67.5160    0.2450 O   0  0  0  0  0  0  0  0  0  0  0  0
   34.4890   67.1620    2.5660 O   0  0  0  0  0  0  0  0  0  0  0  0
   32.0820   65.0530    0.2300 C   0  0  0  0  0  0  0  0  0  0  0  0
   32.7510   64.5930    2.6340 C   0  0  2  0  0  0  0  0  0  0  0  0
   31.4500   65.0740    3.2910 C   0  0  0  0  0  0  0  0  0  0  0  0
   30.3870   64.5390    2.9810 O   0  0  0  0  0  0  0  0  0  0  0  0
   31.4650   65.9210    4.1860 O   0  0  0  0  0  0  0  0  0  0  0  0
   33.8200   64.6620    3.6480 N   0  0  0  0  0  0  0  0  0  0  0  0
   33.9270   63.7570    4.6240 C   0  0  0  0  0  0  0  0  0  0  0  0
   33.1950   62.5900    4.8290 C   0  0  0  0  0  0  0  0  0  0  0  0
   33.5990   61.6440    5.7650 C   0  0  0  0  0  0  0  0  0  0  0  0
   34.5510   61.8570    6.5160 O   0  0  0  0  0  0  0  0  0  0  0  0
  2  3  1  0  0  0  0
  2  1  1  1  0  0  0
  4  3  2  0  0  0  0
  5  2  1  0  0  0  0
  6 25  1  0  0  0  0
  6  5  1  0  0  0  0
  7  8  2  0  0  0  0
  7 11  1  0  0  0  0
  8  9  1  0  0  0  0
  9 10  2  0  0  0  0
 10 11  1  0  0  0  0
 11 12  1  0  0  0  0
 12 13  1  0  0  0  0
 13 14  1  0  0  0  0
 13 17  1  6  0  0  0
 13 18  1  0  0  0  0
 14 15  1  0  0  0  0
 14 16  1  0  0  0  0
 18 19  1  1  0  0  0
 18 22  1  0  0  0  0
 19 20  2  0  0  0  0
 19 21  1  0  0  0  0
 22 23  2  0  0  0  0
 23 24  1  0  0  0  0
 24 25  1  0  0  0  0
 25 26  2  0  0  0  0
M  END
>  <HEADER>
    HYDROLASE                               04-NOV-03   1RCJ              

>  <TITLE>
    CRYSTAL STRUCTURE OF E166A MUTANT OF SHV-1 BETA-LACTAMASE WITH THE    
   2 TRANS-ENAMINE INTERMEDIATE OF TAZOBACTAM                             

>  <COMPND>
    MOL_ID: 1;                                                            
   2 MOLECULE: BETA-LACTAMASE SHV-1;                                      
   3 CHAIN: A;                                                            
   4 SYNONYM: PIT-2;                                                      
   5 EC: 3.5.2.6;                                                         
   6 ENGINEERED: YES;                                                     
   7 MUTATION: YES                                                        

>  <SOURCE>
    MOL_ID: 1;                                                            
   2 ORGANISM_SCIENTIFIC: KLEBSIELLA PNEUMONIAE;                          
   3 ORGANISM_TAXID: 573;                                                 
   4 GENE: BLA, SHV1;                                                     
   5 EXPRESSION_SYSTEM: ESCHERICHIA COLI;                                 
   6 EXPRESSION_SYSTEM_TAXID: 562                                         

>  <KEYWDS>
    BETA-LACTAMASE, BETA-LACTAM HYDROLASE, PENICILLINASE, DETERGENT       
   2 BINDING, INHIBITOR DESIGN, COVALENT INTERMEDIATE, HYDROLASE          

>  <EXPDTA>
    X-RAY DIFFRACTION                                                     

>  <AUTHOR>
    P.S.PADAYATTI,M.S.HELFAND,M.A.TOTIR,M.P.CAREY,A.M.HUJER,P.R.CAREY,    
   2 R.A.BONOMO,F.VAN DEN AKKER                                           

>  <REVDAT>
   4   27-OCT-21 1RCJ    1       REMARK SEQADV LINK                       
   3   11-OCT-17 1RCJ    1       REMARK                                   
   2   24-FEB-09 1RCJ    1       VERSN                                    
   1   17-FEB-04 1RCJ    0                                                

>  <JRNL>
      AUTH   P.S.PADAYATTI,M.S.HELFAND,M.A.TOTIR,M.P.CAREY,A.M.HUJER,     
      AUTH 2 P.R.CAREY,R.A.BONOMO,F.VAN DEN AKKER                         
      TITL   TAZOBACTAM FORMS A STOICHIOMETRIC TRANS-ENAMINE INTERMEDIATE 
      TITL 2 IN THE E166A VARIANT OF SHV-1 BETA-LACTAMASE: 1.63 A CRYSTAL 
      TITL 3 STRUCTURE                                                    
      REF    BIOCHEMISTRY                  V.  43   843 2004              
      REFN                   ISSN 0006-2960                               
      PMID   14744126                                                     

>  <REMARK>
   2                                                                      
   2 RESOLUTION.    1.63 ANGSTROMS.                                       
   3                                                                      
   3 REFINEMENT.                                                          
   3   PROGRAM     : CNS                                                  
   3   AUTHORS     : BRUNGER,ADAMS,CLORE,DELANO,GROS,GROSSE-              
   3               : KUNSTLEVE,JIANG,KUSZEWSKI,NILGES,PANNU,              
   3               : READ,RICE,SIMONSON,WARREN                            
   3                                                                      
   3  REFINEMENT TARGET : ENGH & HUBER                                    
   3                                                                      
   3  DATA USED IN REFINEMENT.                                            
   3   RESOLUTION RANGE HIGH (ANGSTROMS) : 1.63                           
   3   RESOLUTION RANGE LOW  (ANGSTROMS) : 30.00                          
   3   DATA CUTOFF            (SIGMA(F)) : 0.000                          
   3   DATA CUTOFF HIGH         (ABS(F)) : NULL                           
   3   DATA CUTOFF LOW          (ABS(F)) : NULL                           
   3   COMPLETENESS (WORKING+TEST)   (%) : 95.8                           
   3   NUMBER OF REFLECTIONS             : 28279                          
   3                                                                      
   3  FIT TO DATA USED IN REFINEMENT.                                     
   3   CROSS-VALIDATION METHOD          : THROUGHOUT                      
   3   FREE R VALUE TEST SET SELECTION  : RANDOM                          
   3   R VALUE            (WORKING SET) : 0.147                           
   3   FREE R VALUE                     : 0.171                           
   3   FREE R VALUE TEST SET SIZE   (%) : NULL                            
   3   FREE R VALUE TEST SET COUNT      : 1372                            
   3   ESTIMATED ERROR OF FREE R VALUE  : NULL                            
   3                                                                      
   3  FIT IN THE HIGHEST RESOLUTION BIN.                                  
   3   TOTAL NUMBER OF BINS USED           : NULL                         
   3   BIN RESOLUTION RANGE HIGH       (A) : NULL                         
   3   BIN RESOLUTION RANGE LOW        (A) : NULL                         
   3   BIN COMPLETENESS (WORKING+TEST) (%) : NULL                         
   3   REFLECTIONS IN BIN    (WORKING SET) : NULL                         
   3   BIN R VALUE           (WORKING SET) : NULL                         
   3   BIN FREE R VALUE                    : NULL                         
   3   BIN FREE R VALUE TEST SET SIZE  (%) : NULL                         
   3   BIN FREE R VALUE TEST SET COUNT     : NULL                         
   3   ESTIMATED ERROR OF BIN FREE R VALUE : NULL                         
   3                                                                      
   3  NUMBER OF NON-HYDROGEN ATOMS USED IN REFINEMENT.                    
   3   PROTEIN ATOMS            : 2020                                    
   3   NUCLEIC ACID ATOMS       : 0                                       
   3   HETEROGEN ATOMS          : 64                                      
   3   SOLVENT ATOMS            : 300                                     
   3                                                                      
   3  B VALUES.                                                           
   3   FROM WILSON PLOT           (A**2) : 11.80                          
   3   MEAN B VALUE      (OVERALL, A**2) : NULL                           
   3   OVERALL ANISOTROPIC B VALUE.                                       
   3    B11 (A**2) : -0.44000                                             
   3    B22 (A**2) : 1.64300                                              
   3    B33 (A**2) : -1.20300                                             
   3    B12 (A**2) : 0.00000                                              
   3    B13 (A**2) : 0.00000                                              
   3    B23 (A**2) : 0.00000                                              
   3                                                                      
   3  ESTIMATED COORDINATE ERROR.                                         
   3   ESD FROM LUZZATI PLOT        (A) : 0.13                            
   3   ESD FROM SIGMAA              (A) : 0.04                            
   3   LOW RESOLUTION CUTOFF        (A) : 5.00                            
   3                                                                      
   3  CROSS-VALIDATED ESTIMATED COORDINATE ERROR.                         
   3   ESD FROM C-V LUZZATI PLOT    (A) : 0.16                            
   3   ESD FROM C-V SIGMAA          (A) : 0.07                            
   3                                                                      
   3  RMS DEVIATIONS FROM IDEAL VALUES.                                   
   3   BOND LENGTHS                 (A) : 0.009                           
   3   BOND ANGLES            (DEGREES) : NULL                            
   3   DIHEDRAL ANGLES        (DEGREES) : NULL                            
   3   IMPROPER ANGLES        (DEGREES) : NULL                            
   3                                                                      
   3  ISOTROPIC THERMAL MODEL : OVERALL ANISOTROPIC                       
   3                                                                      
   3  ISOTROPIC THERMAL FACTOR RESTRAINTS.    RMS    SIGMA                
   3   MAIN-CHAIN BOND              (A**2) : NULL  ; NULL                 
   3   MAIN-CHAIN ANGLE             (A**2) : NULL  ; NULL                 
   3   SIDE-CHAIN BOND              (A**2) : NULL  ; NULL                 
   3   SIDE-CHAIN ANGLE             (A**2) : NULL  ; NULL                 
   3                                                                      
   3  BULK SOLVENT MODELING.                                              
   3   METHOD USED : NULL                                                 
   3   KSOL        : NULL                                                 
   3   BSOL        : NULL                                                 
   3                                                                      
   3  NCS MODEL : NULL                                                    
   3                                                                      
   3  NCS RESTRAINTS.                         RMS   SIGMA/WEIGHT          
   3   GROUP  1  POSITIONAL            (A) : NULL  ; NULL                 
   3   GROUP  1  B-FACTOR           (A**2) : NULL  ; NULL                 
   3                                                                      
   3  PARAMETER FILE  1  : NULL                                           
   3  TOPOLOGY FILE  1   : NULL                                           
   3                                                                      
   3  OTHER REFINEMENT REMARKS: NULL                                      
   4                                                                      
   4 1RCJ COMPLIES WITH FORMAT V. 3.30, 13-JUL-11                         
 100                                                                      
 100 THIS ENTRY HAS BEEN PROCESSED BY RCSB ON 20-NOV-03.                  
 100 THE DEPOSITION ID IS D_1000020650.                                   
 200                                                                      
 200 EXPERIMENTAL DETAILS                                                 
 200  EXPERIMENT TYPE                : X-RAY DIFFRACTION                  
 200  DATE OF DATA COLLECTION        : 01-JUN-03                          
 200  TEMPERATURE           (KELVIN) : 100                                
 200  PH                             : 7.0                                
 200  NUMBER OF CRYSTALS USED        : 1                                  
 200                                                                      
 200  SYNCHROTRON              (Y/N) : N                                  
 200  RADIATION SOURCE               : ROTATING ANODE                     
 200  BEAMLINE                       : NULL                               
 200  X-RAY GENERATOR MODEL          : RIGAKU                             
 200  MONOCHROMATIC OR LAUE    (M/L) : M                                  
 200  WAVELENGTH OR RANGE        (A) : 1.5418                             
 200  MONOCHROMATOR                  : NULL                               
 200  OPTICS                         : YALE MIRRORS                       
 200                                                                      
 200  DETECTOR TYPE                  : IMAGE PLATE                        
 200  DETECTOR MANUFACTURER          : RIGAKU RAXIS IV                    
 200  INTENSITY-INTEGRATION SOFTWARE : R-AXIS                             
 200  DATA SCALING SOFTWARE          : SCALEPACK                          
 200                                                                      
 200  NUMBER OF UNIQUE REFLECTIONS   : 28328                              
 200  RESOLUTION RANGE HIGH      (A) : 1.630                              
 200  RESOLUTION RANGE LOW       (A) : 30.000                             
 200  REJECTION CRITERIA  (SIGMA(I)) : 1.000                              
 200                                                                      
 200 OVERALL.                                                             
 200  COMPLETENESS FOR RANGE     (%) : 95.6                               
 200  DATA REDUNDANCY                : 4.300                              
 200  R MERGE                    (I) : NULL                               
 200  R SYM                      (I) : 0.03200                            
 200  <I/SIGMA(I)> FOR THE DATA SET  : 40.5000                            
 200                                                                      
 200 IN THE HIGHEST RESOLUTION SHELL.                                     
 200  HIGHEST RESOLUTION SHELL, RANGE HIGH (A) : 1.63                     
 200  HIGHEST RESOLUTION SHELL, RANGE LOW  (A) : 1.69                     
 200  COMPLETENESS FOR SHELL     (%) : 87.7                               
 200  DATA REDUNDANCY IN SHELL       : NULL                               
 200  R MERGE FOR SHELL          (I) : NULL                               
 200  R SYM FOR SHELL            (I) : 0.08000                            
 200  <I/SIGMA(I)> FOR SHELL         : NULL                               
 200                                                                      
 200 DIFFRACTION PROTOCOL: SINGLE WAVELENGTH                              
 200 METHOD USED TO DETERMINE THE STRUCTURE: MOLECULAR REPLACEMENT        
 200 SOFTWARE USED: CNS                                                   
 200 STARTING MODEL: PDB ENTRY 1G56                                       
 200                                                                      
 200 REMARK: NULL                                                         
 280                                                                      
 280 CRYSTAL                                                              
 280 SOLVENT CONTENT, VS   (%): 38.36                                     
 280 MATTHEWS COEFFICIENT, VM (ANGSTROMS**3/DA): 2.00                     
 280                                                                      
 280 CRYSTALLIZATION CONDITIONS: CRYSTAL WAS SOAKED FOR 20 MINUTES IN     
 280  MOTHER LIQUOR CONTAINING 5MM TAZOBACTAM PRIOR TO FLASH FREEZING.    
 280  30% PEG 6000, 0.1M HEPES, 0.56MM CYMAL-6, PH 7.0, VAPOR             
 280  DIFFUSION, SITTING DROP, TEMPERATURE 293K                           
 290                                                                      
 290 CRYSTALLOGRAPHIC SYMMETRY                                            
 290 SYMMETRY OPERATORS FOR SPACE GROUP: P 21 21 21                       
 290                                                                      
 290      SYMOP   SYMMETRY                                                
 290     NNNMMM   OPERATOR                                                
 290       1555   X,Y,Z                                                   
 290       2555   -X+1/2,-Y,Z+1/2                                         
 290       3555   -X,Y+1/2,-Z+1/2                                         
 290       4555   X+1/2,-Y+1/2,-Z                                         
 290                                                                      
 290     WHERE NNN -> OPERATOR NUMBER                                     
 290           MMM -> TRANSLATION VECTOR                                  
 290                                                                      
 290 CRYSTALLOGRAPHIC SYMMETRY TRANSFORMATIONS                            
 290 THE FOLLOWING TRANSFORMATIONS OPERATE ON THE ATOM/HETATM             
 290 RECORDS IN THIS ENTRY TO PRODUCE CRYSTALLOGRAPHICALLY                
 290 RELATED MOLECULES.                                                   
 290   SMTRY1   1  1.000000  0.000000  0.000000        0.00000            
 290   SMTRY2   1  0.000000  1.000000  0.000000        0.00000            
 290   SMTRY3   1  0.000000  0.000000  1.000000        0.00000            
 290   SMTRY1   2 -1.000000  0.000000  0.000000       24.92400            
 290   SMTRY2   2  0.000000 -1.000000  0.000000        0.00000            
 290   SMTRY3   2  0.000000  0.000000  1.000000       41.86650            
 290   SMTRY1   3 -1.000000  0.000000  0.000000        0.00000            
 290   SMTRY2   3  0.000000  1.000000  0.000000       27.59650            
 290   SMTRY3   3  0.000000  0.000000 -1.000000       41.86650            
 290   SMTRY1   4  1.000000  0.000000  0.000000       24.92400            
 290   SMTRY2   4  0.000000 -1.000000  0.000000       27.59650            
 290   SMTRY3   4  0.000000  0.000000 -1.000000        0.00000            
 290                                                                      
 290 REMARK: NULL                                                         
 300                                                                      
 300 BIOMOLECULE: 1                                                       
 300 SEE REMARK 350 FOR THE AUTHOR PROVIDED AND/OR PROGRAM                
 300 GENERATED ASSEMBLY INFORMATION FOR THE STRUCTURE IN                  
 300 THIS ENTRY. THE REMARK MAY ALSO PROVIDE INFORMATION ON               
 300 BURIED SURFACE AREA.                                                 
 350                                                                      
 350 COORDINATES FOR A COMPLETE MULTIMER REPRESENTING THE KNOWN           
 350 BIOLOGICALLY SIGNIFICANT OLIGOMERIZATION STATE OF THE                
 350 MOLECULE CAN BE GENERATED BY APPLYING BIOMT TRANSFORMATIONS          
 350 GIVEN BELOW.  BOTH NON-CRYSTALLOGRAPHIC AND                          
 350 CRYSTALLOGRAPHIC OPERATIONS ARE GIVEN.                               
 350                                                                      
 350 BIOMOLECULE: 1                                                       
 350 AUTHOR DETERMINED BIOLOGICAL UNIT: MONOMERIC                         
 350 APPLY THE FOLLOWING TO CHAINS: A                                     
 350   BIOMT1   1  1.000000  0.000000  0.000000        0.00000            
 350   BIOMT2   1  0.000000  1.000000  0.000000        0.00000            
 350   BIOMT3   1  0.000000  0.000000  1.000000        0.00000            
 500                                                                      
 500 GEOMETRY AND STEREOCHEMISTRY                                         
 500 SUBTOPIC: TORSION ANGLES                                             
 500                                                                      
 500 TORSION ANGLES OUTSIDE THE EXPECTED RAMACHANDRAN REGIONS:            
 500 (M=MODEL NUMBER; RES=RESIDUE NAME; C=CHAIN IDENTIFIER;               
 500 SSEQ=SEQUENCE NUMBER; I=INSERTION CODE).                             
 500                                                                      
 500 STANDARD TABLE:                                                      
 500 FORMAT:(10X,I3,1X,A3,1X,A1,I4,A1,4X,F7.2,3X,F7.2)                    
 500                                                                      
 500 EXPECTED VALUES: GJ KLEYWEGT AND TA JONES (1996). PHI/PSI-           
 500 CHOLOGY: RAMACHANDRAN REVISITED. STRUCTURE 4, 1395 - 1400            
 500                                                                      
 500  M RES CSSEQI        PSI       PHI                                   
 500    MET A  69     -146.58     56.03                                   
 500    TYR A 105       87.71     73.23                                   
 500                                                                      
 500 REMARK: NULL                                                         
 610                                                                      
 610 MISSING HETEROATOM                                                   
 610 THE FOLLOWING RESIDUES HAVE MISSING ATOMS (M=MODEL NUMBER;           
 610 RES=RESIDUE NAME; C=CHAIN IDENTIFIER; SSEQ=SEQUENCE NUMBER;          
 610 I=INSERTION CODE):                                                   
 610   M RES C SSEQI                                                      
 610     MA4 A  401                                                       
 800                                                                      
 800 SITE                                                                 
 800 SITE_IDENTIFIER: AC1                                                 
 800 EVIDENCE_CODE: SOFTWARE                                              
 800 SITE_DESCRIPTION: BINDING SITE FOR RESIDUE MA4 A 400                 
 800                                                                      
 800 SITE_IDENTIFIER: AC2                                                 
 800 EVIDENCE_CODE: SOFTWARE                                              
 800 SITE_DESCRIPTION: BINDING SITE FOR RESIDUE MA4 A 401                 
 800                                                                      
 800 SITE_IDENTIFIER: AC3                                                 
 800 EVIDENCE_CODE: SOFTWARE                                              
 800 SITE_DESCRIPTION: BINDING SITE FOR RESIDUE TBI A 501                 
 900                                                                      
 900 RELATED ENTRIES                                                      
 900 RELATED ID: 1G56   RELATED DB: PDB                                   
 900 STRUCTURE OF SHV-1 BETA-LACTAMASE INHIBITED BY TAZOBACTAM            
 900 RELATED ID: 1N9B   RELATED DB: PDB                                   
 900 ULTRAHIGH RESOLUTION STRUCTURE OF A CLASS A BETA-LACTAMASE: ON THE   
 900 MECHANISM AND SPECIFICITY OF THE EXTENDED-SPECTRUM SHV-2 ENZYME      

>  <DBREF>
 1RCJ A   26   292  UNP    P14557   BLA1_ECOLI      22    286             

>  <SEQADV>
 1RCJ ALA A  166  UNP  P14557    GLU   162 ENGINEERED MUTATION            

>  <SEQRES>
   1 A  265  SER PRO GLN PRO LEU GLU GLN ILE LYS LEU SER GLU SER          
   2 A  265  GLN LEU SER GLY ARG VAL GLY MET ILE GLU MET ASP LEU          
   3 A  265  ALA SER GLY ARG THR LEU THR ALA TRP ARG ALA ASP GLU          
   4 A  265  ARG PHE PRO MET MET SER THR PHE LYS VAL VAL LEU CYS          
   5 A  265  GLY ALA VAL LEU ALA ARG VAL ASP ALA GLY ASP GLU GLN          
   6 A  265  LEU GLU ARG LYS ILE HIS TYR ARG GLN GLN ASP LEU VAL          
   7 A  265  ASP TYR SER PRO VAL SER GLU LYS HIS LEU ALA ASP GLY          
   8 A  265  MET THR VAL GLY GLU LEU CYS ALA ALA ALA ILE THR MET          
   9 A  265  SER ASP ASN SER ALA ALA ASN LEU LEU LEU ALA THR VAL          
  10 A  265  GLY GLY PRO ALA GLY LEU THR ALA PHE LEU ARG GLN ILE          
  11 A  265  GLY ASP ASN VAL THR ARG LEU ASP ARG TRP ALA THR GLU          
  12 A  265  LEU ASN GLU ALA LEU PRO GLY ASP ALA ARG ASP THR THR          
  13 A  265  THR PRO ALA SER MET ALA ALA THR LEU ARG LYS LEU LEU          
  14 A  265  THR SER GLN ARG LEU SER ALA ARG SER GLN ARG GLN LEU          
  15 A  265  LEU GLN TRP MET VAL ASP ASP ARG VAL ALA GLY PRO LEU          
  16 A  265  ILE ARG SER VAL LEU PRO ALA GLY TRP PHE ILE ALA ASP          
  17 A  265  LYS THR GLY ALA GLY GLU ARG GLY ALA ARG GLY ILE VAL          
  18 A  265  ALA LEU LEU GLY PRO ASN ASN LYS ALA GLU ARG ILE VAL          
  19 A  265  VAL ILE TYR LEU ARG ASP THR PRO ALA SER MET ALA GLU          
  20 A  265  ARG ASN GLN GLN ILE ALA GLY ILE GLY ALA ALA LEU ILE          
  21 A  265  GLU HIS TRP GLN ARG                                          

>  <HET>
 MA4  A 400      35                                                       
 MA4  A 401       9                                                       
 TBI  A 501      20                                                       

>  <HETNAM>
     MA4 CYCLOHEXYL-HEXYL-BETA-D-MALTOSIDE                                
     TBI TAZOBACTAM TRANS-ENAMINE INTERMEDIATE                            

>  <FORMUL>
   2  MA4    2(C24 H44 O11)                                               
   4  TBI    C10 H14 N4 O5 S                                              
   5  HOH   *300(H2 O)                                                    

>  <HELIX>
   1   1 GLN A   28  SER A   41  1                                  14    
   2   2 THR A   71  ALA A   86  1                                  16    
   3   3 ARG A   98  LEU A  102  5                                   5    
   4   4 VAL A  108  LEU A  113  5                                   6    
   5   5 VAL A  119  MET A  129  1                                  11    
   6   6 ASP A  131  VAL A  142  1                                  12    
   7   7 GLY A  143  ILE A  155  1                                  13    
   8   8 THR A  182  SER A  196  1                                  15    
   9   9 SER A  200  ASP A  213  1                                  14    
  10  10 ALA A  217  LEU A  225  1                                   9    
  11  11 SER A  271  HIS A  289  1                                  19    

>  <SHEET>
   1   A 5 THR A  56  TRP A  60  0                                        
   2   A 5 ARG A  43  ASP A  50 -1  N  GLU A  48   O  LEU A  57           
   3   A 5 ARG A 259  ARG A 266 -1  O  ILE A 260   N  MET A  49           
   4   A 5 ARG A 244  GLY A 251 -1  N  ALA A 248   O  VAL A 261           
   5   A 5 PHE A 230  ALA A 237 -1  N  PHE A 230   O  GLY A 251           
   1   B 2 PHE A  66  PRO A  67  0                                        
   2   B 2 THR A 180  THR A 181 -1  O  THR A 181   N  PHE A  66           
   1   C 2 LYS A  94  ILE A  95  0                                        
   2   C 2 MET A 117  THR A 118 -1  O  MET A 117   N  ILE A  95           

>  <SSBOND>
   1 CYS A   77    CYS A  123                          1555   1555  2.04  

>  <LINK>
       OG  SER A  70                 C7  TBI A 501     1555   1555  1.37  

>  <SITE>
   1 AC1 18 ARG A  93  HIS A  96  ARG A  98  VAL A 224                    
   2 AC1 18 PRO A 226  ALA A 248  VAL A 261  ILE A 263                    
   3 AC1 18 ALA A 280  ALA A 284  GLU A 288  HOH A 503                    
   4 AC1 18 HOH A 538  HOH A 555  HOH A 588  HOH A 610                    
   5 AC1 18 HOH A 625  HOH A 643                                          
   1 AC2  2 ARG A 244  ILE A 279                                          
   1 AC3  9 MET A  69  SER A  70  TYR A 105  ASN A 132                    
   2 AC3  9 ASN A 170  GLY A 236  ALA A 237  HOH A 550                    
   3 AC3  9 HOH A 766                                                     

>  <ORIGX1>
      1.000000  0.000000  0.000000        0.00000                         

>  <ORIGX2>
      0.000000  1.000000  0.000000        0.00000                         

>  <ORIGX3>
      0.000000  0.000000  1.000000        0.00000                         

>  <SCALE1>
      0.020061  0.000000  0.000000        0.00000                         

>  <SCALE2>
      0.000000  0.018118  0.000000        0.00000                         

>  <SCALE3>
      0.000000  0.000000  0.011943        0.00000                         

>  <MASTER>
      256    0    3   11    9    0    9    6 2384    1   67   21          

$$$$
