start_structures/Ligand_Substrate/Ligand_Complex_Stripped/TDJ_6VNU.pdb
 OpenBabel08222315203D

 37 47  0  0  1  0  0  0  0  0999 V2000
    2.4800    5.7600  -15.0580 N   0  0  0  0  0  0  0  0  0  0  0  0
    2.0990    4.8840  -16.1950 C   0  0  2  0  0  0  0  0  0  0  0  0
    0.6750    5.1200  -16.7160 C   0  0  0  0  0  0  0  0  0  0  0  0
    0.3670    4.5620  -17.7670 O   0  0  0  0  0  0  0  0  0  0  0  0
    2.2920    3.4490  -15.8680 C   0  0  0  0  0  0  0  0  0  0  0  0
    3.6690    3.1990  -15.7590 O   0  0  0  0  0  0  0  0  0  0  0  0
    5.2810   -1.4470  -12.9010 C   0  0  0  0  0  0  0  0  0  0  0  0
   14.8140    5.1180   -9.9530 C   0  0  2  0  0  0  0  0  0  0  0  0
   14.6180    4.3320  -11.0690 C   0  0  1  0  0  0  0  0  0  0  0  0
   13.6930    3.3470  -10.7520 C   0  0  1  0  0  0  0  0  0  0  0  0
   13.3050    3.5350   -9.4530 C   0  0  1  0  0  0  0  0  0  0  0  0
   13.9900    4.6100   -8.9480 C   0  0  2  0  0  0  0  0  0  0  0  0
   11.8770    7.3390  -10.3760 C   0  0  2  0  0  0  0  0  0  0  0  0
   11.0350    6.4190   -9.7430 C   0  0  1  0  0  0  0  0  0  0  0  0
   10.5390    5.5290  -10.6900 C   0  0  2  0  0  0  0  0  0  0  0  0
   11.9000    7.0280  -11.7360 C   0  0  1  0  0  0  0  0  0  0  0  0
    5.3680    2.3920  -14.1810 C   0  0  1  0  0  0  0  0  0  0  0  0
    5.0720    0.9620  -14.4590 C   0  0  1  0  0  0  0  0  0  0  0  0
    3.6980    3.7290  -13.5540 O   0  0  0  0  0  0  0  0  0  0  0  0
    4.2980    3.2700  -14.5720 C   0  0  0  0  0  0  0  0  0  0  0  0
    6.2040   -0.3060  -13.9030 S   0  0  0  0  0  0  0  0  0  0  0  0
    4.1030   -0.7740  -12.1870 C   0  0  2  0  0  0  0  0  0  0  0  0
    3.8140   -1.2360  -10.7870 C   0  0  0  0  0  0  0  0  0  0  0  0
    3.3270    0.1520  -12.8010 C   0  0  0  0  0  0  0  0  0  0  0  0
    1.9060    0.3520  -12.4030 C   0  0  0  0  0  0  0  0  0  0  0  0
    1.5920    0.7380  -11.2740 O   0  0  0  0  0  0  0  0  0  0  0  0
    1.0000    0.1380  -13.2320 O   0  0  0  0  0  0  0  0  0  0  0  0
    3.7330    0.8950  -13.8470 N   0  0  0  0  0  0  0  0  0  0  0  0
    6.1590    2.7960  -13.0620 N   0  0  0  0  0  0  0  0  0  0  0  0
    7.4790    2.7320  -12.9310 C   0  0  0  0  0  0  0  0  0  0  0  0
    8.2610    2.3110  -13.7560 O   0  0  0  0  0  0  0  0  0  0  0  0
    7.9290    3.2710  -11.6030 C   0  0  0  0  0  0  0  0  0  0  0  0
    9.4300    3.4150  -11.5560 C   0  0  0  0  0  0  0  0  0  0  0  0
    9.6520    4.3650  -10.4070 C   0  0  0  0  0  0  0  0  0  0  0  0
    9.1440    4.2090   -9.3040 O   0  0  0  0  0  0  0  0  0  0  0  0
   12.7070    5.3080  -10.6160 Ru  0  0  0  0  0  0  0  0  0  0  0  0
   11.0800    5.9290  -11.9340 C   0  0  1  0  0  0  0  0  0  0  0  0
  2  5  1  0  0  0  0
  2  1  1  1  0  0  0
  3  2  1  0  0  0  0
  4  3  2  0  0  0  0
  5  6  1  0  0  0  0
  6 20  1  0  0  0  0
  7 21  1  0  0  0  0
  7 22  1  0  0  0  0
  8  9  1  0  0  0  0
  8 12  1  0  0  0  0
  8 36  1  0  0  0  0
  9 10  1  0  0  0  0
  9 36  1  0  0  0  0
 10 11  1  0  0  0  0
 10 36  1  0  0  0  0
 11 12  1  0  0  0  0
 11 36  1  0  0  0  0
 12 36  1  0  0  0  0
 13 14  1  0  0  0  0
 13 16  1  0  0  0  0
 13 36  1  0  0  0  0
 14 15  1  0  0  0  0
 14 36  1  0  0  0  0
 15 34  1  0  0  0  0
 15 36  1  0  0  0  0
 15 37  1  0  0  0  0
 16 36  1  0  0  0  0
 16 37  1  0  0  0  0
 17 18  1  0  0  0  0
 17 20  1  0  0  0  0
 17 29  1  0  0  0  0
 18 21  1  0  0  0  0
 18 28  1  0  0  0  0
 19 20  2  0  0  0  0
 22 23  1  0  0  0  0
 22 24  1  0  0  0  0
 24 25  1  0  0  0  0
 24 28  2  0  0  0  0
 25 26  2  0  0  0  0
 25 27  1  0  0  0  0
 29 30  1  0  0  0  0
 30 31  2  0  0  0  0
 30 32  1  0  0  0  0
 32 33  1  0  0  0  0
 33 34  1  0  0  0  0
 34 35  2  0  0  0  0
 36 37  1  0  0  0  0
M  END
>  <HEADER>
    HYDROLASE                               29-JAN-20   6VNU              

>  <TITLE>
    X-RAY CRYSTAL STRUCTURE OF RUTHENOCENYL-7-AMINOCEPHALOSPORANIC ACID   
   2 COVALENT ACYL-ENZYME COMPLEX WITH CTX-M-14 E166A BETA-LACTAMASE      

>  <COMPND>
    MOL_ID: 1;                                                            
   2 MOLECULE: BETA-LACTAMASE;                                            
   3 CHAIN: A, B;                                                         
   4 SYNONYM: CTX-M-14 CLASS A BETA-LACTAMASE;                            
   5 EC: 3.5.2.6;                                                         
   6 ENGINEERED: YES;                                                     
   7 MUTATION: YES                                                        

>  <SOURCE>
    MOL_ID: 1;                                                            
   2 ORGANISM_SCIENTIFIC: ESCHERICHIA COLI;                               
   3 ORGANISM_TAXID: 562;                                                 
   4 GENE: BLACTX-M, CTX-M-14;                                            
   5 EXPRESSION_SYSTEM: ESCHERICHIA COLI;                                 
   6 EXPRESSION_SYSTEM_TAXID: 562                                         

>  <KEYWDS>
    ORGANOMETALLIC, CTX-M-14, HYDROLASE                                   

>  <EXPDTA>
    X-RAY DIFFRACTION                                                     

>  <AUTHOR>
    E.M.LEWANDOWSKI,L.M.C.JACOBS,Y.CHEN                                   

>  <REVDAT>
   2   12-AUG-20 6VNU    1       JRNL   LINK                              
   1   01-APR-20 6VNU    0                                                

>  <JRNL>
      AUTH   E.M.LEWANDOWSKI,L.SZCZUPAK,A.KOWALCZYK,G.MENDOZA,M.ARRUEBO,  
      AUTH 2 L.M.C.JACOBS,P.STACZEK,Y.CHEN,K.KOWALSKI                     
      TITL   METALLOCENYL 7-ACA CONJUGATES: ANTIBACTERIAL ACTIVITY        
      TITL 2 STUDIES AND ATOMIC-RESOLUTION X-RAY CRYSTAL STRUCTURE WITH   
      TITL 3 CTX-M BETA-LACTAMASE.                                        
      REF    CHEMBIOCHEM                   V.  21  2187 2020              
      REFN                   ESSN 1439-7633                               
      PMID   32182393                                                     
      DOI    10.1002/CBIC.202000054                                       

>  <REMARK>
   2                                                                      
   2 RESOLUTION.    1.47 ANGSTROMS.                                       
   3                                                                      
   3 REFINEMENT.                                                          
   3   PROGRAM     : REFMAC 5.8.0258                                      
   3   AUTHORS     : MURSHUDOV,SKUBAK,LEBEDEV,PANNU,STEINER,              
   3               : NICHOLLS,WINN,LONG,VAGIN                             
   3                                                                      
   3    REFINEMENT TARGET : MAXIMUM LIKELIHOOD                            
   3                                                                      
   3  DATA USED IN REFINEMENT.                                            
   3   RESOLUTION RANGE HIGH (ANGSTROMS) : 1.47                           
   3   RESOLUTION RANGE LOW  (ANGSTROMS) : 34.16                          
   3   DATA CUTOFF            (SIGMA(F)) : 0.000                          
   3   COMPLETENESS FOR RANGE        (%) : 69.0                           
   3   NUMBER OF REFLECTIONS             : 49262                          
   3                                                                      
   3  FIT TO DATA USED IN REFINEMENT.                                     
   3   CROSS-VALIDATION METHOD          : THROUGHOUT                      
   3   FREE R VALUE TEST SET SELECTION  : RANDOM                          
   3   R VALUE     (WORKING + TEST SET) : 0.175                           
   3   R VALUE            (WORKING SET) : 0.173                           
   3   FREE R VALUE                     : 0.218                           
   3   FREE R VALUE TEST SET SIZE   (%) : 4.900                           
   3   FREE R VALUE TEST SET COUNT      : 2519                            
   3                                                                      
   3  FIT IN THE HIGHEST RESOLUTION BIN.                                  
   3   TOTAL NUMBER OF BINS USED           : 20                           
   3   BIN RESOLUTION RANGE HIGH       (A) : 1.47                         
   3   BIN RESOLUTION RANGE LOW        (A) : 1.51                         
   3   REFLECTION IN BIN     (WORKING SET) : 1909                         
   3   BIN COMPLETENESS (WORKING+TEST) (%) : 35.96                        
   3   BIN R VALUE           (WORKING SET) : 0.2230                       
   3   BIN FREE R VALUE SET COUNT          : 88                           
   3   BIN FREE R VALUE                    : 0.2590                       
   3                                                                      
   3  NUMBER OF NON-HYDROGEN ATOMS USED IN REFINEMENT.                    
   3   PROTEIN ATOMS            : 3896                                    
   3   NUCLEIC ACID ATOMS       : 0                                       
   3   HETEROGEN ATOMS          : 97                                      
   3   SOLVENT ATOMS            : 525                                     
   3                                                                      
   3  B VALUES.                                                           
   3   FROM WILSON PLOT           (A**2) : NULL                           
   3   MEAN B VALUE      (OVERALL, A**2) : 14.95                          
   3   OVERALL ANISOTROPIC B VALUE.                                       
   3    B11 (A**2) : 0.37000                                              
   3    B22 (A**2) : -0.51000                                             
   3    B33 (A**2) : -0.01000                                             
   3    B12 (A**2) : 0.00000                                              
   3    B13 (A**2) : 0.37000                                              
   3    B23 (A**2) : 0.00000                                              
   3                                                                      
   3  ESTIMATED OVERALL COORDINATE ERROR.                                 
   3   ESU BASED ON R VALUE                            (A): 0.121         
   3   ESU BASED ON FREE R VALUE                       (A): 0.118         
   3   ESU BASED ON MAXIMUM LIKELIHOOD                 (A): 0.059         
   3   ESU FOR B VALUES BASED ON MAXIMUM LIKELIHOOD (A**2): 1.579         
   3                                                                      
   3 CORRELATION COEFFICIENTS.                                            
   3   CORRELATION COEFFICIENT FO-FC      : 0.966                         
   3   CORRELATION COEFFICIENT FO-FC FREE : 0.948                         
   3                                                                      
   3  RMS DEVIATIONS FROM IDEAL VALUES        COUNT    RMS    WEIGHT      
   3   BOND LENGTHS REFINED ATOMS        (A):  4617 ; 0.010 ; 0.013       
   3   BOND LENGTHS OTHERS               (A):  4248 ; 0.001 ; 0.017       
   3   BOND ANGLES REFINED ATOMS   (DEGREES):  6275 ; 1.737 ; 1.683       
   3   BOND ANGLES OTHERS          (DEGREES):  9880 ; 1.511 ; 1.595       
   3   TORSION ANGLES, PERIOD 1    (DEGREES):   616 ; 6.864 ; 5.000       
   3   TORSION ANGLES, PERIOD 2    (DEGREES):   227 ;36.697 ;22.159       
   3   TORSION ANGLES, PERIOD 3    (DEGREES):   762 ;13.984 ;15.000       
   3   TORSION ANGLES, PERIOD 4    (DEGREES):    37 ;12.494 ;15.000       
   3   CHIRAL-CENTER RESTRAINTS       (A**3):   620 ; 0.235 ; 0.200       
   3   GENERAL PLANES REFINED ATOMS      (A):  5401 ; 0.009 ; 0.020       
   3   GENERAL PLANES OTHERS             (A):   935 ; 0.003 ; 0.020       
   3   NON-BONDED CONTACTS REFINED ATOMS (A):  NULL ;  NULL ;  NULL       
   3   NON-BONDED CONTACTS OTHERS        (A):  NULL ;  NULL ;  NULL       
   3   NON-BONDED TORSION REFINED ATOMS  (A):  NULL ;  NULL ;  NULL       
   3   NON-BONDED TORSION OTHERS         (A):  NULL ;  NULL ;  NULL       
   3   H-BOND (X...Y) REFINED ATOMS      (A):  NULL ;  NULL ;  NULL       
   3   H-BOND (X...Y) OTHERS             (A):  NULL ;  NULL ;  NULL       
   3   POTENTIAL METAL-ION REFINED ATOMS (A):  NULL ;  NULL ;  NULL       
   3   POTENTIAL METAL-ION OTHERS        (A):  NULL ;  NULL ;  NULL       
   3   SYMMETRY VDW REFINED ATOMS        (A):  NULL ;  NULL ;  NULL       
   3   SYMMETRY VDW OTHERS               (A):  NULL ;  NULL ;  NULL       
   3   SYMMETRY H-BOND REFINED ATOMS     (A):  NULL ;  NULL ;  NULL       
   3   SYMMETRY H-BOND OTHERS            (A):  NULL ;  NULL ;  NULL       
   3   SYMMETRY METAL-ION REFINED ATOMS  (A):  NULL ;  NULL ;  NULL       
   3   SYMMETRY METAL-ION OTHERS         (A):  NULL ;  NULL ;  NULL       
   3                                                                      
   3  ISOTROPIC THERMAL FACTOR RESTRAINTS.     COUNT   RMS    WEIGHT      
   3   MAIN-CHAIN BOND REFINED ATOMS  (A**2):  NULL ;  NULL ;  NULL       
   3   MAIN-CHAIN BOND OTHER ATOMS    (A**2):  NULL ;  NULL ;  NULL       
   3   MAIN-CHAIN ANGLE REFINED ATOMS (A**2):  NULL ;  NULL ;  NULL       
   3   MAIN-CHAIN ANGLE OTHER ATOMS   (A**2):  NULL ;  NULL ;  NULL       
   3   SIDE-CHAIN BOND REFINED ATOMS  (A**2):  NULL ;  NULL ;  NULL       
   3   SIDE-CHAIN BOND OTHER ATOMS    (A**2):  NULL ;  NULL ;  NULL       
   3   SIDE-CHAIN ANGLE REFINED ATOMS (A**2):  NULL ;  NULL ;  NULL       
   3   SIDE-CHAIN ANGLE OTHER ATOMS   (A**2):  NULL ;  NULL ;  NULL       
   3   LONG RANGE B REFINED ATOMS     (A**2):  NULL ;  NULL ;  NULL       
   3   LONG RANGE B OTHER ATOMS       (A**2):  NULL ;  NULL ;  NULL       
   3                                                                      
   3 ANISOTROPIC THERMAL FACTOR RESTRAINTS.    COUNT   RMS   WEIGHT       
   3   RIGID-BOND RESTRAINTS          (A**2):  NULL ;  NULL ;  NULL       
   3   SPHERICITY; FREE ATOMS         (A**2):  NULL ;  NULL ;  NULL       
   3   SPHERICITY; BONDED ATOMS       (A**2):  NULL ;  NULL ;  NULL       
   3                                                                      
   3  NCS RESTRAINTS STATISTICS                                           
   3   NUMBER OF DIFFERENT NCS GROUPS : NULL                              
   3                                                                      
   3  TLS DETAILS                                                         
   3   NUMBER OF TLS GROUPS  : NULL                                       
   3                                                                      
   3  BULK SOLVENT MODELLING.                                             
   3   METHOD USED : MASK                                                 
   3   PARAMETERS FOR MASK CALCULATION                                    
   3   VDW PROBE RADIUS   : 1.20                                          
   3   ION PROBE RADIUS   : 0.80                                          
   3   SHRINKAGE RADIUS   : 0.80                                          
   3                                                                      
   3  OTHER REFINEMENT REMARKS: HYDROGENS HAVE BEEN ADDED IN THE RIDING   
   3  POSITIONS U VALUES : REFINED INDIVIDUALLY                           
   4                                                                      
   4 6VNU COMPLIES WITH FORMAT V. 3.30, 13-JUL-11                         
 100                                                                      
 100 THIS ENTRY HAS BEEN PROCESSED BY RCSB ON 30-JAN-20.                  
 100 THE DEPOSITION ID IS D_1000246698.                                   
 200                                                                      
 200 EXPERIMENTAL DETAILS                                                 
 200  EXPERIMENT TYPE                : X-RAY DIFFRACTION                  
 200  DATE OF DATA COLLECTION        : 18-MAR-18                          
 200  TEMPERATURE           (KELVIN) : 100                                
 200  PH                             : 7.9                                
 200  NUMBER OF CRYSTALS USED        : 1                                  
 200                                                                      
 200  SYNCHROTRON              (Y/N) : Y                                  
 200  RADIATION SOURCE               : APS                                
 200  BEAMLINE                       : 22-ID                              
 200  X-RAY GENERATOR MODEL          : NULL                               
 200  MONOCHROMATIC OR LAUE    (M/L) : M                                  
 200  WAVELENGTH OR RANGE        (A) : 1.0                                
 200  MONOCHROMATOR                  : NULL                               
 200  OPTICS                         : NULL                               
 200                                                                      
 200  DETECTOR TYPE                  : PIXEL                              
 200  DETECTOR MANUFACTURER          : DECTRIS EIGER X 16M                
 200  INTENSITY-INTEGRATION SOFTWARE : HKL-2000                           
 200  DATA SCALING SOFTWARE          : SCALEPACK                          
 200                                                                      
 200  NUMBER OF UNIQUE REFLECTIONS   : 60469                              
 200  RESOLUTION RANGE HIGH      (A) : 1.470                              
 200  RESOLUTION RANGE LOW       (A) : 53.447                             
 200  REJECTION CRITERIA  (SIGMA(I)) : NULL                               
 200                                                                      
 200 OVERALL.                                                             
 200  COMPLETENESS FOR RANGE     (%) : 80.7                               
 200  DATA REDUNDANCY                : 2.800                              
 200  R MERGE                    (I) : 0.06500                            
 200  R SYM                      (I) : NULL                               
 200  <I/SIGMA(I)> FOR THE DATA SET  : 14.4600                            
 200                                                                      
 200 IN THE HIGHEST RESOLUTION SHELL.                                     
 200  HIGHEST RESOLUTION SHELL, RANGE HIGH (A) : 1.47                     
 200  HIGHEST RESOLUTION SHELL, RANGE LOW  (A) : 1.51                     
 200  COMPLETENESS FOR SHELL     (%) : 93.7                               
 200  DATA REDUNDANCY IN SHELL       : NULL                               
 200  R MERGE FOR SHELL          (I) : 0.45200                            
 200  R SYM FOR SHELL            (I) : NULL                               
 200  <I/SIGMA(I)> FOR SHELL         : 2.060                              
 200                                                                      
 200 DIFFRACTION PROTOCOL: SINGLE WAVELENGTH                              
 200 METHOD USED TO DETERMINE THE STRUCTURE: MOLECULAR REPLACEMENT        
 200 SOFTWARE USED: PHASER                                                
 200 STARTING MODEL: 4XXR                                                 
 200                                                                      
 200 REMARK: NULL                                                         
 280                                                                      
 280 CRYSTAL                                                              
 280 SOLVENT CONTENT, VS   (%): 39.29                                     
 280 MATTHEWS COEFFICIENT, VM (ANGSTROMS**3/DA): 2.03                     
 280                                                                      
 280 CRYSTALLIZATION CONDITIONS: POTASSIUM PHOSPHATE, PH 7.9, VAPOR       
 280  DIFFUSION, HANGING DROP, TEMPERATURE 293.15K                        
 290                                                                      
 290 CRYSTALLOGRAPHIC SYMMETRY                                            
 290 SYMMETRY OPERATORS FOR SPACE GROUP: P 1 21 1                         
 290                                                                      
 290      SYMOP   SYMMETRY                                                
 290     NNNMMM   OPERATOR                                                
 290       1555   X,Y,Z                                                   
 290       2555   -X,Y+1/2,-Z                                             
 290                                                                      
 290     WHERE NNN -> OPERATOR NUMBER                                     
 290           MMM -> TRANSLATION VECTOR                                  
 290                                                                      
 290 CRYSTALLOGRAPHIC SYMMETRY TRANSFORMATIONS                            
 290 THE FOLLOWING TRANSFORMATIONS OPERATE ON THE ATOM/HETATM             
 290 RECORDS IN THIS ENTRY TO PRODUCE CRYSTALLOGRAPHICALLY                
 290 RELATED MOLECULES.                                                   
 290   SMTRY1   1  1.000000  0.000000  0.000000        0.00000            
 290   SMTRY2   1  0.000000  1.000000  0.000000        0.00000            
 290   SMTRY3   1  0.000000  0.000000  1.000000        0.00000            
 290   SMTRY1   2 -1.000000  0.000000  0.000000        0.00000            
 290   SMTRY2   2  0.000000  1.000000  0.000000       53.44700            
 290   SMTRY3   2  0.000000  0.000000 -1.000000        0.00000            
 290                                                                      
 290 REMARK: NULL                                                         
 300                                                                      
 300 BIOMOLECULE: 1, 2                                                    
 300 SEE REMARK 350 FOR THE AUTHOR PROVIDED AND/OR PROGRAM                
 300 GENERATED ASSEMBLY INFORMATION FOR THE STRUCTURE IN                  
 300 THIS ENTRY. THE REMARK MAY ALSO PROVIDE INFORMATION ON               
 300 BURIED SURFACE AREA.                                                 
 350                                                                      
 350 COORDINATES FOR A COMPLETE MULTIMER REPRESENTING THE KNOWN           
 350 BIOLOGICALLY SIGNIFICANT OLIGOMERIZATION STATE OF THE                
 350 MOLECULE CAN BE GENERATED BY APPLYING BIOMT TRANSFORMATIONS          
 350 GIVEN BELOW.  BOTH NON-CRYSTALLOGRAPHIC AND                          
 350 CRYSTALLOGRAPHIC OPERATIONS ARE GIVEN.                               
 350                                                                      
 350 BIOMOLECULE: 1                                                       
 350 AUTHOR DETERMINED BIOLOGICAL UNIT: MONOMERIC                         
 350 SOFTWARE DETERMINED QUATERNARY STRUCTURE: MONOMERIC                  
 350 SOFTWARE USED: PISA                                                  
 350 APPLY THE FOLLOWING TO CHAINS: A                                     
 350   BIOMT1   1  1.000000  0.000000  0.000000        0.00000            
 350   BIOMT2   1  0.000000  1.000000  0.000000        0.00000            
 350   BIOMT3   1  0.000000  0.000000  1.000000        0.00000            
 350                                                                      
 350 BIOMOLECULE: 2                                                       
 350 AUTHOR DETERMINED BIOLOGICAL UNIT: MONOMERIC                         
 350 SOFTWARE DETERMINED QUATERNARY STRUCTURE: MONOMERIC                  
 350 SOFTWARE USED: PISA                                                  
 350 APPLY THE FOLLOWING TO CHAINS: B                                     
 350   BIOMT1   1  1.000000  0.000000  0.000000        0.00000            
 350   BIOMT2   1  0.000000  1.000000  0.000000        0.00000            
 350   BIOMT3   1  0.000000  0.000000  1.000000        0.00000            
 465                                                                      
 465 MISSING RESIDUES                                                     
 465 THE FOLLOWING RESIDUES WERE NOT LOCATED IN THE                       
 465 EXPERIMENT. (M=MODEL NUMBER; RES=RESIDUE NAME; C=CHAIN               
 465 IDENTIFIER; SSSEQ=SEQUENCE NUMBER; I=INSERTION CODE.)                
 465                                                                      
 465   M RES C SSSEQI                                                     
 465     GLN B    25                                                      
 465     THR B    26                                                      
 465     SER B    27                                                      
 470                                                                      
 470 MISSING ATOM                                                         
 470 THE FOLLOWING RESIDUES HAVE MISSING ATOMS (M=MODEL NUMBER;           
 470 RES=RESIDUE NAME; C=CHAIN IDENTIFIER; SSEQ=SEQUENCE NUMBER;          
 470 I=INSERTION CODE):                                                   
 470   M RES CSSEQI  ATOMS                                                
 470     GLN A  25    CG   CD   OE1  NE2                                  
 500                                                                      
 500 GEOMETRY AND STEREOCHEMISTRY                                         
 500 SUBTOPIC: CLOSE CONTACTS IN SAME ASYMMETRIC UNIT                     
 500                                                                      
 500 THE FOLLOWING ATOMS ARE IN CLOSE CONTACT.                            
 500                                                                      
 500  ATM1  RES C  SSEQI   ATM2  RES C  SSEQI           DISTANCE          
 500   O    HOH B   660     O    HOH B   664              2.10            
 500   O    HOH B   471     O    HOH B   616              2.18            
 500                                                                      
 500 REMARK: NULL                                                         
 500                                                                      
 500 GEOMETRY AND STEREOCHEMISTRY                                         
 500 SUBTOPIC: CLOSE CONTACTS                                             
 500                                                                      
 500 THE FOLLOWING ATOMS THAT ARE RELATED BY CRYSTALLOGRAPHIC             
 500 SYMMETRY ARE IN CLOSE CONTACT.  AN ATOM LOCATED WITHIN 0.15          
 500 ANGSTROMS OF A SYMMETRY RELATED ATOM IS ASSUMED TO BE ON A           
 500 SPECIAL POSITION AND IS, THEREFORE, LISTED IN REMARK 375             
 500 INSTEAD OF REMARK 500.  ATOMS WITH NON-BLANK ALTERNATE               
 500 LOCATION INDICATORS ARE NOT INCLUDED IN THE CALCULATIONS.            
 500                                                                      
 500 DISTANCE CUTOFF:                                                     
 500 2.2 ANGSTROMS FOR CONTACTS NOT INVOLVING HYDROGEN ATOMS              
 500 1.6 ANGSTROMS FOR CONTACTS INVOLVING HYDROGEN ATOMS                  
 500                                                                      
 500  ATM1  RES C  SSEQI   ATM2  RES C  SSEQI  SSYMOP   DISTANCE          
 500   O    HOH A   498     O    HOH B   479     1655     1.92            
 500                                                                      
 500 REMARK: NULL                                                         
 500                                                                      
 500 GEOMETRY AND STEREOCHEMISTRY                                         
 500 SUBTOPIC: TORSION ANGLES                                             
 500                                                                      
 500 TORSION ANGLES OUTSIDE THE EXPECTED RAMACHANDRAN REGIONS:            
 500 (M=MODEL NUMBER; RES=RESIDUE NAME; C=CHAIN IDENTIFIER;               
 500 SSEQ=SEQUENCE NUMBER; I=INSERTION CODE).                             
 500                                                                      
 500 STANDARD TABLE:                                                      
 500 FORMAT:(10X,I3,1X,A3,1X,A1,I4,A1,4X,F7.2,3X,F7.2)                    
 500                                                                      
 500 EXPECTED VALUES: GJ KLEYWEGT AND TA JONES (1996). PHI/PSI-           
 500 CHOLOGY: RAMACHANDRAN REVISITED. STRUCTURE 4, 1395 - 1400            
 500                                                                      
 500  M RES CSSEQI        PSI       PHI                                   
 500    CYS A  69     -138.71     45.88                                   
 500    VAL A 103     -139.03   -120.75                                   
 500    ASN A 106       58.80   -157.64                                   
 500    ASN A 106       62.07   -154.27                                   
 500    SER A 220     -127.77   -106.86                                   
 500    ASN B  54       27.03     49.79                                   
 500    CYS B  69     -143.76     47.43                                   
 500    VAL B 103     -133.36   -116.81                                   
 500    ASN B 106       52.51   -145.57                                   
 500    SER B 220     -127.06   -102.48                                   
 500                                                                      
 500 REMARK: NULL                                                         
 620                                                                      
 620 METAL COORDINATION                                                   
 620 (M=MODEL NUMBER; RES=RESIDUE NAME; C=CHAIN IDENTIFIER;               
 620 SSEQ=SEQUENCE NUMBER; I=INSERTION CODE):                             
 620                                                                      
 620 COORDINATION ANGLES FOR:  M RES CSSEQI METAL                         
 620                               K A 304   K                            
 620 N RES CSSEQI ATOM                                                    
 620 1 GLY A 238   O                                                      
 620 2 HOH A 402   O    78.7                                              
 620 3 HOH A 473   O    81.0  58.2                                        
 620 4 HOH A 480   O    83.4 135.9  79.5                                  
 620 5 HOH A 512   O    72.5 106.1 151.8 106.3                            
 620 6 HOH A 566   O   142.8 130.9 131.3  85.3  76.9                      
 620 N                    1     2     3     4     5                       
 620                                                                      
 620 COORDINATION ANGLES FOR:  M RES CSSEQI METAL                         
 620                               K B 303   K                            
 620 N RES CSSEQI ATOM                                                    
 620 1 GLY B 238   O                                                      
 620 2 HOH B 449   O    82.9                                              
 620 3 HOH B 463   O    82.0  83.5                                        
 620 4 HOH B 549   O    81.6 149.7  68.7                                  
 620 5 HOH B 561   O    69.4 101.5 149.9  97.2                            
 620 6 HOH B 583   O   154.6  82.2 116.5 120.4  93.6                      
 620 N                    1     2     3     4     5                       
 800                                                                      
 800 SITE                                                                 
 800 SITE_IDENTIFIER: AC1                                                 
 800 EVIDENCE_CODE: SOFTWARE                                              
 800 SITE_DESCRIPTION: binding site for residue 7G4 A 301                 
 800                                                                      
 800 SITE_IDENTIFIER: AC2                                                 
 800 EVIDENCE_CODE: SOFTWARE                                              
 800 SITE_DESCRIPTION: binding site for residue 7G4 A 302                 
 800                                                                      
 800 SITE_IDENTIFIER: AC3                                                 
 800 EVIDENCE_CODE: SOFTWARE                                              
 800 SITE_DESCRIPTION: binding site for residue TDJ A 303                 
 800                                                                      
 800 SITE_IDENTIFIER: AC4                                                 
 800 EVIDENCE_CODE: SOFTWARE                                              
 800 SITE_DESCRIPTION: binding site for residue K A 304                   
 800                                                                      
 800 SITE_IDENTIFIER: AC5                                                 
 800 EVIDENCE_CODE: SOFTWARE                                              
 800 SITE_DESCRIPTION: binding site for residue 7G4 B 301                 
 800                                                                      
 800 SITE_IDENTIFIER: AC6                                                 
 800 EVIDENCE_CODE: SOFTWARE                                              
 800 SITE_DESCRIPTION: binding site for residue K B 303                   
 800                                                                      
 800 SITE_IDENTIFIER: AC7                                                 
 800 EVIDENCE_CODE: SOFTWARE                                              
 800 SITE_DESCRIPTION: binding site for Di-peptide TDJ B 302 and SER B    
 800  70                                                                  

>  <DBREF1>
 6VNU A   25   290  UNP                  A0A1B3B7F6_ECOLX                 
 6VNU B   25   290  UNP                  A0A1B3B7F6_ECOLX                 

>  <DBREF2>
 6VNU A     A0A1B3B7F6                         26         288             
 6VNU B     A0A1B3B7F6                         26         288             

>  <SEQADV>
 6VNU ALA A  166  UNP  A0A1B3B7F GLU   166 ENGINEERED MUTATION            
 6VNU ALA B  166  UNP  A0A1B3B7F GLU   166 ENGINEERED MUTATION            

>  <SEQRES>
   1 A  263  GLN THR SER ALA VAL GLN GLN LYS LEU ALA ALA LEU GLU          
   2 A  263  LYS SER SER GLY GLY ARG LEU GLY VAL ALA LEU ILE ASP          
   3 A  263  THR ALA ASP ASN THR GLN VAL LEU TYR ARG GLY ASP GLU          
   4 A  263  ARG PHE PRO MET CYS SER THR SER LYS VAL MET ALA ALA          
   5 A  263  ALA ALA VAL LEU LYS GLN SER GLU THR GLN LYS GLN LEU          
   6 A  263  LEU ASN GLN PRO VAL GLU ILE LYS PRO ALA ASP LEU VAL          
   7 A  263  ASN TYR ASN PRO ILE ALA GLU LYS HIS VAL ASN GLY THR          
   8 A  263  MET THR LEU ALA GLU LEU SER ALA ALA ALA LEU GLN TYR          
   9 A  263  SER ASP ASN THR ALA MET ASN LYS LEU ILE ALA GLN LEU          
  10 A  263  GLY GLY PRO GLY GLY VAL THR ALA PHE ALA ARG ALA ILE          
  11 A  263  GLY ASP GLU THR PHE ARG LEU ASP ARG THR ALA PRO THR          
  12 A  263  LEU ASN THR ALA ILE PRO GLY ASP PRO ARG ASP THR THR          
  13 A  263  THR PRO ARG ALA MET ALA GLN THR LEU ARG GLN LEU THR          
  14 A  263  LEU GLY HIS ALA LEU GLY GLU THR GLN ARG ALA GLN LEU          
  15 A  263  VAL THR TRP LEU LYS GLY ASN THR THR GLY ALA ALA SER          
  16 A  263  ILE ARG ALA GLY LEU PRO THR SER TRP THR VAL GLY ASP          
  17 A  263  LYS THR GLY SER GLY ASP TYR GLY THR THR ASN ASP ILE          
  18 A  263  ALA VAL ILE TRP PRO GLN GLY ARG ALA PRO LEU VAL LEU          
  19 A  263  VAL THR TYR PHE THR GLN PRO GLN GLN ASN ALA GLU SER          
  20 A  263  ARG ARG ASP VAL LEU ALA SER ALA ALA ARG ILE ILE ALA          
  21 A  263  GLU GLY LEU                                                  
   1 B  263  GLN THR SER ALA VAL GLN GLN LYS LEU ALA ALA LEU GLU          
   2 B  263  LYS SER SER GLY GLY ARG LEU GLY VAL ALA LEU ILE ASP          
   3 B  263  THR ALA ASP ASN THR GLN VAL LEU TYR ARG GLY ASP GLU          
   4 B  263  ARG PHE PRO MET CYS SER THR SER LYS VAL MET ALA ALA          
   5 B  263  ALA ALA VAL LEU LYS GLN SER GLU THR GLN LYS GLN LEU          
   6 B  263  LEU ASN GLN PRO VAL GLU ILE LYS PRO ALA ASP LEU VAL          
   7 B  263  ASN TYR ASN PRO ILE ALA GLU LYS HIS VAL ASN GLY THR          
   8 B  263  MET THR LEU ALA GLU LEU SER ALA ALA ALA LEU GLN TYR          
   9 B  263  SER ASP ASN THR ALA MET ASN LYS LEU ILE ALA GLN LEU          
  10 B  263  GLY GLY PRO GLY GLY VAL THR ALA PHE ALA ARG ALA ILE          
  11 B  263  GLY ASP GLU THR PHE ARG LEU ASP ARG THR ALA PRO THR          
  12 B  263  LEU ASN THR ALA ILE PRO GLY ASP PRO ARG ASP THR THR          
  13 B  263  THR PRO ARG ALA MET ALA GLN THR LEU ARG GLN LEU THR          
  14 B  263  LEU GLY HIS ALA LEU GLY GLU THR GLN ARG ALA GLN LEU          
  15 B  263  VAL THR TRP LEU LYS GLY ASN THR THR GLY ALA ALA SER          
  16 B  263  ILE ARG ALA GLY LEU PRO THR SER TRP THR VAL GLY ASP          
  17 B  263  LYS THR GLY SER GLY ASP TYR GLY THR THR ASN ASP ILE          
  18 B  263  ALA VAL ILE TRP PRO GLN GLY ARG ALA PRO LEU VAL LEU          
  19 B  263  VAL THR TYR PHE THR GLN PRO GLN GLN ASN ALA GLU SER          
  20 B  263  ARG ARG ASP VAL LEU ALA SER ALA ALA ARG ILE ILE ALA          
  21 B  263  GLU GLY LEU                                                  

>  <HET>
 7G4  A 301      11                                                       
 7G4  A 302      11                                                       
 TDJ  A 303      31                                                       
   K  A 304       1                                                       
 7G4  B 301      11                                                       
 TDJ  B 302      31                                                       
   K  B 303       1                                                       

>  <HETNAM>
     7G4 RUTHENOCENE                                                      
     TDJ [(1,2,3,4,5-ETA)-1-(4-{[CARBOXY(4-CARBOXY-5-                     
   2 TDJ  METHYLIDENE-5,6-DIHYDRO-2H-1,3-THIAZIN-2-YL)                    
   3 TDJ  METHYL]AMINO}-4-OXOBUTANOYL)CYCLOPENTADIENYL][(1,2,3,           
   4 TDJ  4,5-ETA)-CYCLOPENTADIENYL]RUTHENIUM                             
       K POTASSIUM ION                                                    

>  <HETSYN>
     7G4 BIS[(1,2,3,4,5-ETA)-CYCLOPENTADIENYL]RUTHENIUM                   

>  <FORMUL>
   3  7G4    3(C10 H10 RU)                                                
   5  TDJ    2(C22 H13 N2 O6 RU S)                                        
   6    K    2(K 1+)                                                      
  10  HOH   *525(H2 O)                                                    

>  <HELIX>
   1 AA1 SER A   27  GLY A   41  1                                  15    
   2 AA2 CYS A   69  THR A   71  5                                   3    
   3 AA3 SER A   72  GLU A   85  1                                  14    
   4 AA4 GLN A   89  ASN A   92  5                                   4    
   5 AA5 LYS A   98  LEU A  102  5                                   5    
   6 AA6 ILE A  108  VAL A  113  5                                   6    
   7 AA7 LEU A  119  SER A  130  1                                  12    
   8 AA8 ASP A  131  LEU A  142  1                                  12    
   9 AA9 GLY A  144  ILE A  155  1                                  12    
  10 AB1 PRO A  167  THR A  171  5                                   5    
  11 AB2 THR A  182  LEU A  195  1                                  14    
  12 AB3 GLY A  200  GLY A  213  1                                  14    
  13 AB4 SER A  220  LEU A  225  5                                   6    
  14 AB5 ARG A  275  GLY A  289  1                                  15    
  15 AB6 VAL B   29  GLY B   41  1                                  13    
  16 AB7 CYS B   69  THR B   71  5                                   3    
  17 AB8 SER B   72  GLU B   85  1                                  14    
  18 AB9 GLN B   89  ASN B   92  5                                   4    
  19 AC1 LYS B   98  LEU B  102  5                                   5    
  20 AC2 ILE B  108  VAL B  113  5                                   6    
  21 AC3 LEU B  119  SER B  130  1                                  12    
  22 AC4 ASP B  131  LEU B  142  1                                  12    
  23 AC5 GLY B  144  ILE B  155  1                                  12    
  24 AC6 PRO B  167  THR B  171  5                                   5    
  25 AC7 THR B  182  LEU B  195  1                                  14    
  26 AC8 GLY B  200  GLY B  213  1                                  14    
  27 AC9 SER B  220  LEU B  225  5                                   6    
  28 AD1 ARG B  275  LEU B  290  1                                  16    

>  <SHEET>
   1 AA1 5 GLN A  56  TYR A  60  0                                        
   2 AA1 5 ARG A  43  ASP A  50 -1  N  VAL A  46   O  TYR A  60           
   3 AA1 5 LEU A 259  THR A 266 -1  O  THR A 266   N  ARG A  43           
   4 AA1 5 THR A 243  TRP A 251 -1  N  ILE A 250   O  LEU A 259           
   5 AA1 5 THR A 230  GLY A 238 -1  N  THR A 230   O  TRP A 251           
   1 AA2 2 PHE A  66  PRO A  67  0                                        
   2 AA2 2 THR A 180  THR A 181 -1  O  THR A 181   N  PHE A  66           
   1 AA3 2 PRO A  94  ILE A  97  0                                        
   2 AA3 2 GLY A 115  THR A 118 -1  O  GLY A 115   N  ILE A  97           
   1 AA4 5 GLN B  56  TYR B  60  0                                        
   2 AA4 5 ARG B  43  ASP B  50 -1  N  VAL B  46   O  TYR B  60           
   3 AA4 5 LEU B 259  THR B 266 -1  O  TYR B 264   N  GLY B  45           
   4 AA4 5 THR B 243  TRP B 251 -1  N  ILE B 250   O  LEU B 259           
   5 AA4 5 THR B 230  GLY B 238 -1  N  THR B 230   O  TRP B 251           
   1 AA5 2 PHE B  66  PRO B  67  0                                        
   2 AA5 2 THR B 180  THR B 181 -1  O  THR B 181   N  PHE B  66           
   1 AA6 2 PRO B  94  ILE B  97  0                                        
   2 AA6 2 GLY B 115  THR B 118 -1  O  GLY B 115   N  ILE B  97           

>  <LINK>
       OG  SER A  70                 C32 TDJ A 303     1555   1555  1.35  
       OG  SER B  70                 C32 TDJ B 302     1555   1555  1.37  
       O   GLY A 238                 K     K A 304     1555   1555  2.70  
       K     K A 304                 O   HOH A 402     1555   1555  2.82  
       K     K A 304                 O   HOH A 473     1555   1555  2.88  
       K     K A 304                 O   HOH A 480     1555   1555  2.92  
       K     K A 304                 O   HOH A 512     1555   1555  2.67  
       K     K A 304                 O   HOH A 566     1555   1555  2.41  
       O   GLY B 238                 K     K B 303     1555   1555  2.73  
       K     K B 303                 O   HOH B 449     1555   1555  2.81  
       K     K B 303                 O   HOH B 463     1555   1555  2.73  
       K     K B 303                 O  BHOH B 549     1555   1555  2.95  
       K     K B 303                 O   HOH B 561     1555   1555  2.61  
       K     K B 303                 O   HOH B 583     1555   1555  2.51  

>  <CISPEP>
   1 ALA A  166    PRO A  167          0         2.84                     
   2 ALA B  166    PRO B  167          0         3.15                     

>  <SITE>
   1 AC1  7 ILE A 108  GLU A 121  ALA A 124  ALA A 125                    
   2 AC1  7 TYR A 129  HOH A 537  HOH A 600                               
   1 AC2  4 LYS A  38  SER A  39  PHE A 151  HOH A 454                    
   1 AC3 20 CYS A  69  SER A  70  ASN A 104  TYR A 105                    
   2 AC3 20 SER A 130  ASN A 132  PRO A 167  ASN A 170                    
   3 AC3 20 THR A 171  LYS A 234  THR A 235  GLY A 236                    
   4 AC3 20 SER A 237  GLY A 238  ASP A 240  ARG A 256                    
   5 AC3 20 HOH A 402  HOH A 416  HOH A 473  HOH A 516                    
   1 AC4  6 GLY A 238  HOH A 402  HOH A 473  HOH A 480                    
   2 AC4  6 HOH A 512  HOH A 566                                          
   1 AC5  3 ILE B 108  GLU B 121  HOH B 416                               
   1 AC6  6 GLY B 238  HOH B 449  HOH B 463  HOH B 549                    
   2 AC6  6 HOH B 561  HOH B 583                                          
   1 AC7 22 MET B  68  CYS B  69  THR B  71  SER B  72                    
   2 AC7 22 LYS B  73  ASN B 104  TYR B 105  SER B 130                    
   3 AC7 22 ASN B 132  PRO B 167  ASN B 170  LYS B 234                    
   4 AC7 22 THR B 235  GLY B 236  SER B 237  GLY B 238                    
   5 AC7 22 ASP B 240  ARG B 256  HOH B 463  HOH B 549                    
   6 AC7 22 HOH B 550  HOH B 566                                          

>  <ORIGX1>
      1.000000  0.000000  0.000000        0.00000                         

>  <ORIGX2>
      0.000000  1.000000  0.000000        0.00000                         

>  <ORIGX3>
      0.000000  0.000000  1.000000        0.00000                         

>  <SCALE1>
      0.022147  0.000000  0.004579        0.00000                         

>  <SCALE2>
      0.000000  0.009355  0.000000        0.00000                         

>  <SCALE3>
      0.000000  0.000000  0.021315        0.00000                         

>  <MASTER>
      367    0    7   28   18    0   19    6 4518    2  123   42          

$$$$
