start_structures/Ligand_Substrate/Ligand_Complex_Stripped/TEB_4Q8I.pdb
 OpenBabel08222315193D

 31 33  0  0  1  0  0  0  0  0999 V2000
   15.0120   11.2010    5.6370 N   0  0  0  0  0  0  0  0  0  0  0  0
   14.5160   10.8550    6.9720 C   0  0  2  0  0  0  0  0  0  0  0  0
   15.4130    9.9370    7.7970 C   0  0  0  0  0  0  0  0  0  0  0  0
   15.0910    9.6360    8.9450 O   0  0  0  0  0  0  0  0  0  0  0  0
   13.1280   10.2320    6.8830 C   0  0  0  0  0  0  0  0  0  0  0  0
   12.1670   11.1840    6.4560 O   0  0  0  0  0  0  0  0  0  0  0  0
   11.7730   11.4500    5.1680 C   0  0  0  0  0  0  0  0  0  0  0  0
   12.5840   10.8320    4.2700 O   0  0  0  0  0  0  0  0  0  0  0  0
   10.4310   11.9440    4.6910 C   0  0  2  0  0  0  0  0  0  0  0  0
   10.1120   13.1990    5.3780 C   0  0  2  0  0  0  0  0  0  0  0  0
   10.3840   13.1240    6.7510 O   0  0  0  0  0  0  0  0  0  0  0  0
    8.6860   13.6010    5.1830 C   0  0  0  0  0  0  0  0  0  0  0  0
    9.4510   10.8470    4.9870 C   0  0  1  0  0  0  0  0  0  0  0  0
    8.5070   10.5550    3.8650 C   0  0  1  0  0  0  0  0  0  0  0  0
    9.0510   11.0220    2.5450 C   0  0  0  0  0  0  0  0  0  0  0  0
   10.2450    9.6660    5.0940 N   0  0  0  0  0  0  0  0  0  0  0  0
    9.3860    8.5800    4.7490 C   0  0  2  0  0  0  0  0  0  0  0  0
   10.1020    7.3930    4.3630 C   0  0  0  0  0  0  0  0  0  0  0  0
    9.6890    6.6550    3.4320 O   0  0  0  0  0  0  0  0  0  0  0  0
   11.1130    7.1010    4.9910 O   0  0  0  0  0  0  0  0  0  0  0  0
    8.3100    9.0860    3.8540 C   0  0  1  0  0  0  0  0  0  0  0  0
    6.7790    8.6820    4.7060 S   0  0  0  0  0  0  0  0  0  0  0  0
    6.1150    7.1840    4.1300 C   0  0  1  0  0  0  0  0  0  0  0  0
    6.7240    5.9410    3.7730 C   0  0  0  0  0  0  0  0  0  0  0  0
    5.3480    5.4970    3.5020 N   0  0  1  0  0  0  0  0  0  0  0  0
    4.7590    6.7830    3.8680 C   0  0  0  0  0  0  0  0  0  0  0  0
    4.9140    4.1930    3.0130 C   0  0  2  0  0  0  0  0  0  0  0  0
    3.4300    4.0000    3.2150 N   0  0  0  0  0  0  0  0  0  0  0  0
    3.2110    2.4170    3.2650 C   0  0  0  0  0  0  0  0  0  0  0  0
    4.4540    1.8450    3.9180 C   0  0  0  0  0  0  0  0  0  0  0  0
    5.5980    3.0010    3.8000 S   0  0  0  0  0  0  0  0  0  0  0  0
  2  1  1  6  0  0  0
  2  3  1  0  0  0  0
  3  4  2  0  0  0  0
  5  2  1  0  0  0  0
  6  7  1  0  0  0  0
  6  5  1  0  0  0  0
  7  8  2  0  0  0  0
  9  7  1  1  0  0  0
  9 10  1  0  0  0  0
 10 11  1  0  0  0  0
 10 12  1  1  0  0  0
 13  9  1  6  0  0  0
 13 14  1  0  0  0  0
 13 16  1  0  0  0  0
 14 15  1  6  0  0  0
 14 21  1  0  0  0  0
 16 17  1  0  0  0  0
 17 18  1  6  0  0  0
 17 21  1  0  0  0  0
 18 19  2  0  0  0  0
 18 20  1  0  0  0  0
 21 22  1  1  0  0  0
 23 22  1  1  0  0  0
 23 24  1  0  0  0  0
 23 26  1  0  0  0  0
 25 24  1  6  0  0  0
 25 26  1  0  0  0  0
 25 27  1  0  0  0  0
 27 28  1  1  0  0  0
 27 31  1  0  0  0  0
 28 29  1  0  0  0  0
 29 30  1  0  0  0  0
 30 31  1  0  0  0  0
M  END
>  <HEADER>
    HYDROLASE/ANTIBIOTIC                    27-APR-14   4Q8I              

>  <TITLE>
    CRYSTAL STRUCTURE OF BETA-LACTAMASE FROM M.TUBERCULOSIS COVALENTLY    
   2 COMPLEXED WITH TEBIPENEM                                             

>  <COMPND>
    MOL_ID: 1;                                                            
   2 MOLECULE: BETA-LACTAMASE;                                            
   3 CHAIN: A;                                                            
   4 FRAGMENT: BETA-LACTAM DESTROYING ENZYME;                             
   5 SYNONYM: PENICILLINASE;                                              
   6 EC: 3.5.2.6;                                                         
   7 ENGINEERED: YES;                                                     
   8 MUTATION: YES                                                        

>  <SOURCE>
    MOL_ID: 1;                                                            
   2 ORGANISM_SCIENTIFIC: MYCOBACTERIUM TUBERCULOSIS;                     
   3 ORGANISM_TAXID: 83332;                                               
   4 STRAIN: ATCC 25618 / H37RV;                                          
   5 GENE: BLAA, BLAC, RV2068C, MTCY49.07C;                               
   6 EXPRESSION_SYSTEM: ESCHERICHIA COLI;                                 
   7 EXPRESSION_SYSTEM_TAXID: 562                                         

>  <KEYWDS>
    BETALACTAM, BETALACTAMASE,CARBAPENEM, TEBIPENEM, TEBIPENEM PIVOXIL,   
   2 3-LAYER SANDWICH, DD-PEPTIDASE/BETA-LACTAMASE SUPERFAMILY,           
   3 HYDROLASE-ANTIBIOTIC COMPLEX                                         

>  <EXPDTA>
    X-RAY DIFFRACTION                                                     

>  <AUTHOR>
    S.HAZRA,J.BLANCHARD                                                   

>  <REVDAT>
   2   27-AUG-14 4Q8I    1       JRNL                                     
   1   20-AUG-14 4Q8I    0                                                

>  <JRNL>
      AUTH   S.HAZRA,H.XU,J.S.BLANCHARD                                   
      TITL   TEBIPENEM, A NEW CARBAPENEM ANTIBIOTIC, IS A SLOW SUBSTRATE  
      TITL 2 THAT INHIBITS THE BETA-LACTAMASE FROM MYCOBACTERIUM          
      TITL 3 TUBERCULOSIS.                                                
      REF    BIOCHEMISTRY                  V.  53  3671 2014              
      REFN                   ISSN 0006-2960                               
      PMID   24846409                                                     
      DOI    10.1021/BI500339J                                            

>  <REMARK>
   2                                                                      
   2 RESOLUTION.    1.90 ANGSTROMS.                                       
   3                                                                      
   3 REFINEMENT.                                                          
   3   PROGRAM     : PHENIX (PHENIX.REFINE: 1.8.1_1168)                   
   3   AUTHORS     : PAUL ADAMS,PAVEL AFONINE,VINCENT CHEN,IAN            
   3               : DAVIS,KRESHNA GOPAL,RALF GROSSE-                     
   3               : KUNSTLEVE,LI-WEI HUNG,ROBERT IMMORMINO,              
   3               : TOM IOERGER,AIRLIE MCCOY,ERIK MCKEE,NIGEL            
   3               : MORIARTY,REETAL PAI,RANDY READ,JANE                  
   3               : RICHARDSON,DAVID RICHARDSON,TOD ROMO,JIM             
   3               : SACCHETTINI,NICHOLAS SAUTER,JACOB SMITH,             
   3               : LAURENT STORONI,TOM TERWILLIGER,PETER                
   3               : ZWART                                                
   3                                                                      
   3    REFINEMENT TARGET : ML                                            
   3                                                                      
   3  DATA USED IN REFINEMENT.                                            
   3   RESOLUTION RANGE HIGH (ANGSTROMS) : 1.90                           
   3   RESOLUTION RANGE LOW  (ANGSTROMS) : 91.36                          
   3   MIN(FOBS/SIGMA_FOBS)              : 1.330                          
   3   COMPLETENESS FOR RANGE        (%) : 97.9                           
   3   NUMBER OF REFLECTIONS             : 20453                          
   3                                                                      
   3  FIT TO DATA USED IN REFINEMENT.                                     
   3   R VALUE     (WORKING + TEST SET) : 0.167                           
   3   R VALUE            (WORKING SET) : 0.161                           
   3   FREE R VALUE                     : 0.225                           
   3   FREE R VALUE TEST SET SIZE   (%) : 9.780                           
   3   FREE R VALUE TEST SET COUNT      : 2000                            
   3                                                                      
   3  FIT TO DATA USED IN REFINEMENT (IN BINS).                           
   3   BIN  RESOLUTION RANGE  COMPL.    NWORK NFREE   RWORK  RFREE        
   3     1 41.6628 -  4.5789    0.96     1408   153  0.1471 0.1778        
   3     2  4.5789 -  3.6351    0.98     1346   145  0.1156 0.1803        
   3     3  3.6351 -  3.1758    0.98     1340   146  0.1306 0.2010        
   3     4  3.1758 -  2.8855    0.99     1331   144  0.1413 0.2205        
   3     5  2.8855 -  2.6787    0.98     1331   144  0.1541 0.2235        
   3     6  2.6787 -  2.5208    0.98     1304   142  0.1563 0.2314        
   3     7  2.5208 -  2.3946    0.99     1323   143  0.1563 0.2479        
   3     8  2.3946 -  2.2904    0.99     1314   143  0.1664 0.2338        
   3     9  2.2904 -  2.2022    0.95     1260   136  0.2228 0.2880        
   3    10  2.2022 -  2.1262    0.98     1294   140  0.1810 0.2562        
   3    11  2.1262 -  2.0597    0.99     1303   141  0.1932 0.2349        
   3    12  2.0597 -  2.0008    0.98     1311   142  0.2106 0.2891        
   3    13  2.0008 -  1.9482    0.99     1291   141  0.2471 0.2809        
   3    14  1.9482 -  1.9006    0.97     1297   140  0.3323 0.3930        
   3                                                                      
   3  BULK SOLVENT MODELLING.                                             
   3   METHOD USED        : FLAT BULK SOLVENT MODEL                       
   3   SOLVENT RADIUS     : 1.11                                          
   3   SHRINKAGE RADIUS   : 0.90                                          
   3   K_SOL              : NULL                                          
   3   B_SOL              : NULL                                          
   3                                                                      
   3  ERROR ESTIMATES.                                                    
   3   COORDINATE ERROR (MAXIMUM-LIKELIHOOD BASED)     : 0.250            
   3   PHASE ERROR (DEGREES, MAXIMUM-LIKELIHOOD BASED) : 23.320           
   3                                                                      
   3  B VALUES.                                                           
   3   FROM WILSON PLOT           (A**2) : NULL                           
   3   MEAN B VALUE      (OVERALL, A**2) : NULL                           
   3   OVERALL ANISOTROPIC B VALUE.                                       
   3    B11 (A**2) : NULL                                                 
   3    B22 (A**2) : NULL                                                 
   3    B33 (A**2) : NULL                                                 
   3    B12 (A**2) : NULL                                                 
   3    B13 (A**2) : NULL                                                 
   3    B23 (A**2) : NULL                                                 
   3                                                                      
   3  TWINNING INFORMATION.                                               
   3   FRACTION: NULL                                                     
   3   OPERATOR: NULL                                                     
   3                                                                      
   3  DEVIATIONS FROM IDEAL VALUES.                                       
   3                 RMSD          COUNT                                  
   3   BOND      :  0.006           2109                                  
   3   ANGLE     :  1.210           2885                                  
   3   CHIRALITY :  0.068            322                                  
   3   PLANARITY :  0.004            378                                  
   3   DIHEDRAL  : 16.402            793                                  
   3                                                                      
   3  TLS DETAILS                                                         
   3   NUMBER OF TLS GROUPS  : 1                                          
   3   TLS GROUP : 1                                                      
   3    SELECTION: all                                                    
   3    ORIGIN FOR THE GROUP (A):  17.8090   6.9360   8.5607              
   3    T TENSOR                                                          
   3      T11:   0.0791 T22:   0.0953                                     
   3      T33:   0.1092 T12:  -0.0185                                     
   3      T13:  -0.0111 T23:   0.0092                                     
   3    L TENSOR                                                          
   3      L11:   0.6747 L22:   0.6773                                     
   3      L33:   1.5232 L12:  -0.0524                                     
   3      L13:  -0.1645 L23:  -0.0515                                     
   3    S TENSOR                                                          
   3      S11:   0.0034 S12:  -0.0247 S13:  -0.0329                       
   3      S21:   0.0402 S22:   0.0076 S23:   0.0199                       
   3      S31:   0.0575 S32:  -0.0724 S33:  -0.0102                       
   3                                                                      
   3  NCS DETAILS                                                         
   3   NUMBER OF NCS GROUPS : NULL                                        
   3                                                                      
   3  OTHER REFINEMENT REMARKS: NULL                                      
   4                                                                      
   4 4Q8I COMPLIES WITH FORMAT V. 3.30, 13-JUL-11                         
 100                                                                      
 100 THIS ENTRY HAS BEEN PROCESSED BY RCSB ON 02-MAY-14.                  
 100 THE RCSB ID CODE IS RCSB085737.                                      
 200                                                                      
 200 EXPERIMENTAL DETAILS                                                 
 200  EXPERIMENT TYPE                : X-RAY DIFFRACTION                  
 200  DATE OF DATA COLLECTION        : NULL                               
 200  TEMPERATURE           (KELVIN) : NULL                               
 200  PH                             : 7.5                                
 200  NUMBER OF CRYSTALS USED        : 1                                  
 200                                                                      
 200  SYNCHROTRON              (Y/N) : N                                  
 200  RADIATION SOURCE               : ROTATING ANODE                     
 200  BEAMLINE                       : NULL                               
 200  X-RAY GENERATOR MODEL          : RIGAKU                             
 200  MONOCHROMATIC OR LAUE    (M/L) : M                                  
 200  WAVELENGTH OR RANGE        (A) : 1.5418                             
 200  MONOCHROMATOR                  : GRAPHITE                           
 200  OPTICS                         : NULL                               
 200                                                                      
 200  DETECTOR TYPE                  : IMAGE PLATE                        
 200  DETECTOR MANUFACTURER          : RIGAKU RAXIS IV++                  
 200  INTENSITY-INTEGRATION SOFTWARE : NULL                               
 200  DATA SCALING SOFTWARE          : HKL-3000                           
 200                                                                      
 200  NUMBER OF UNIQUE REFLECTIONS   : 20453                              
 200  RESOLUTION RANGE HIGH      (A) : 1.900                              
 200  RESOLUTION RANGE LOW       (A) : 41.650                             
 200  REJECTION CRITERIA  (SIGMA(I)) : NULL                               
 200                                                                      
 200 OVERALL.                                                             
 200  COMPLETENESS FOR RANGE     (%) : NULL                               
 200  DATA REDUNDANCY                : NULL                               
 200  R MERGE                    (I) : NULL                               
 200  R SYM                      (I) : NULL                               
 200  <I/SIGMA(I)> FOR THE DATA SET  : NULL                               
 200                                                                      
 200 IN THE HIGHEST RESOLUTION SHELL.                                     
 200  HIGHEST RESOLUTION SHELL, RANGE HIGH (A) : 1.90                     
 200  HIGHEST RESOLUTION SHELL, RANGE LOW  (A) : 41.65                    
 200  COMPLETENESS FOR SHELL     (%) : 97.3                               
 200  DATA REDUNDANCY IN SHELL       : NULL                               
 200  R MERGE FOR SHELL          (I) : NULL                               
 200  R SYM FOR SHELL            (I) : NULL                               
 200  <I/SIGMA(I)> FOR SHELL         : NULL                               
 200                                                                      
 200 DIFFRACTION PROTOCOL: SINGLE WAVELENGTH                              
 200 METHOD USED TO DETERMINE THE STRUCTURE: MOLECULAR REPLACEMENT        
 200 SOFTWARE USED: PHENIX                                                
 200 STARTING MODEL: 4HFX                                                 
 200                                                                      
 200 REMARK: NULL                                                         
 280                                                                      
 280 CRYSTAL                                                              
 280 SOLVENT CONTENT, VS   (%): 45.54                                     
 280 MATTHEWS COEFFICIENT, VM (ANGSTROMS**3/DA): 2.26                     
 280                                                                      
 280 CRYSTALLIZATION CONDITIONS: 0.1M HEPES, PH 7.5, 2M NH4H2PO4          
 280  PROTEIN CONCENTRATION 12 MGS/ML, VAPOR DIFFUSION, HANGING DROP,     
 280  TEMPERATURE 283K                                                    
 290                                                                      
 290 CRYSTALLOGRAPHIC SYMMETRY                                            
 290 SYMMETRY OPERATORS FOR SPACE GROUP: P 21 21 21                       
 290                                                                      
 290      SYMOP   SYMMETRY                                                
 290     NNNMMM   OPERATOR                                                
 290       1555   X,Y,Z                                                   
 290       2555   -X+1/2,-Y,Z+1/2                                         
 290       3555   -X,Y+1/2,-Z+1/2                                         
 290       4555   X+1/2,-Y+1/2,-Z                                         
 290                                                                      
 290     WHERE NNN -> OPERATOR NUMBER                                     
 290           MMM -> TRANSLATION VECTOR                                  
 290                                                                      
 290 CRYSTALLOGRAPHIC SYMMETRY TRANSFORMATIONS                            
 290 THE FOLLOWING TRANSFORMATIONS OPERATE ON THE ATOM/HETATM             
 290 RECORDS IN THIS ENTRY TO PRODUCE CRYSTALLOGRAPHICALLY                
 290 RELATED MOLECULES.                                                   
 290   SMTRY1   1  1.000000  0.000000  0.000000        0.00000            
 290   SMTRY2   1  0.000000  1.000000  0.000000        0.00000            
 290   SMTRY3   1  0.000000  0.000000  1.000000        0.00000            
 290   SMTRY1   2 -1.000000  0.000000  0.000000       24.96250            
 290   SMTRY2   2  0.000000 -1.000000  0.000000        0.00000            
 290   SMTRY3   2  0.000000  0.000000  1.000000       37.77700            
 290   SMTRY1   3 -1.000000  0.000000  0.000000        0.00000            
 290   SMTRY2   3  0.000000  1.000000  0.000000       34.01300            
 290   SMTRY3   3  0.000000  0.000000 -1.000000       37.77700            
 290   SMTRY1   4  1.000000  0.000000  0.000000       24.96250            
 290   SMTRY2   4  0.000000 -1.000000  0.000000       34.01300            
 290   SMTRY3   4  0.000000  0.000000 -1.000000        0.00000            
 290                                                                      
 290 REMARK: NULL                                                         
 300                                                                      
 300 BIOMOLECULE: 1                                                       
 300 SEE REMARK 350 FOR THE AUTHOR PROVIDED AND/OR PROGRAM                
 300 GENERATED ASSEMBLY INFORMATION FOR THE STRUCTURE IN                  
 300 THIS ENTRY. THE REMARK MAY ALSO PROVIDE INFORMATION ON               
 300 BURIED SURFACE AREA.                                                 
 350                                                                      
 350 COORDINATES FOR A COMPLETE MULTIMER REPRESENTING THE KNOWN           
 350 BIOLOGICALLY SIGNIFICANT OLIGOMERIZATION STATE OF THE                
 350 MOLECULE CAN BE GENERATED BY APPLYING BIOMT TRANSFORMATIONS          
 350 GIVEN BELOW.  BOTH NON-CRYSTALLOGRAPHIC AND                          
 350 CRYSTALLOGRAPHIC OPERATIONS ARE GIVEN.                               
 350                                                                      
 350 BIOMOLECULE: 1                                                       
 350 AUTHOR DETERMINED BIOLOGICAL UNIT: MONOMERIC                         
 350 SOFTWARE DETERMINED QUATERNARY STRUCTURE: MONOMERIC                  
 350 SOFTWARE USED: PISA                                                  
 350 APPLY THE FOLLOWING TO CHAINS: A                                     
 350   BIOMT1   1  1.000000  0.000000  0.000000        0.00000            
 350   BIOMT2   1  0.000000  1.000000  0.000000        0.00000            
 350   BIOMT3   1  0.000000  0.000000  1.000000        0.00000            
 465                                                                      
 465 MISSING RESIDUES                                                     
 465 THE FOLLOWING RESIDUES WERE NOT LOCATED IN THE                       
 465 EXPERIMENT. (M=MODEL NUMBER; RES=RESIDUE NAME; C=CHAIN               
 465 IDENTIFIER; SSSEQ=SEQUENCE NUMBER; I=INSERTION CODE.)                
 465                                                                      
 465   M RES C SSSEQI                                                     
 465     GLY A    41                                                      
 465     ALA A    42                                                      
 500                                                                      
 500 GEOMETRY AND STEREOCHEMISTRY                                         
 500 SUBTOPIC: CLOSE CONTACTS IN SAME ASYMMETRIC UNIT                     
 500                                                                      
 500 THE FOLLOWING ATOMS ARE IN CLOSE CONTACT.                            
 500                                                                      
 500  ATM1  RES C  SSEQI   ATM2  RES C  SSEQI           DISTANCE          
 500   O    HOH A   625     O    HOH A   817              2.02            
 500   O    HOH A   792     O    HOH A   799              2.04            
 500   O    HOH A   784     O    HOH A   809              2.05            
 500   O    HOH A   532     O    HOH A   763              2.05            
 500   O    HOH A   668     O    HOH A   791              2.11            
 500                                                                      
 500 REMARK: NULL                                                         
 500                                                                      
 500 GEOMETRY AND STEREOCHEMISTRY                                         
 500 SUBTOPIC: COVALENT BOND LENGTHS                                      
 500                                                                      
 500 THE STEREOCHEMICAL PARAMETERS OF THE FOLLOWING RESIDUES              
 500 HAVE VALUES WHICH DEVIATE FROM EXPECTED VALUES BY MORE               
 500 THAN 6*RMSD (M=MODEL NUMBER; RES=RESIDUE NAME; C=CHAIN               
 500 IDENTIFIER; SSEQ=SEQUENCE NUMBER; I=INSERTION CODE).                 
 500                                                                      
 500 STANDARD TABLE:                                                      
 500 FORMAT: (10X,I3,1X,2(A3,1X,A1,I4,A1,1X,A4,3X),1X,F6.3)               
 500                                                                      
 500 EXPECTED VALUES PROTEIN: ENGH AND HUBER, 1999                        
 500 EXPECTED VALUES NUCLEIC ACID: CLOWNEY ET AL 1996                     
 500                                                                      
 500  M RES CSSEQI ATM1   RES CSSEQI ATM2   DEVIATION                     
 500    HIS A 124   NE2   HIS A 124   CD2    -0.066                       
 500                                                                      
 500 REMARK: NULL                                                         
 500                                                                      
 500 GEOMETRY AND STEREOCHEMISTRY                                         
 500 SUBTOPIC: TORSION ANGLES                                             
 500                                                                      
 500 TORSION ANGLES OUTSIDE THE EXPECTED RAMACHANDRAN REGIONS:            
 500 (M=MODEL NUMBER; RES=RESIDUE NAME; C=CHAIN IDENTIFIER;               
 500 SSEQ=SEQUENCE NUMBER; I=INSERTION CODE).                             
 500                                                                      
 500 STANDARD TABLE:                                                      
 500 FORMAT:(10X,I3,1X,A3,1X,A1,I4,A1,4X,F7.2,3X,F7.2)                    
 500                                                                      
 500 EXPECTED VALUES: GJ KLEYWEGT AND TA JONES (1996). PHI/PSI-           
 500 CHOLOGY: RAMACHANDRAN REVISITED. STRUCTURE 4, 1395 - 1400            
 500                                                                      
 500  M RES CSSEQI        PSI       PHI                                   
 500    THR A  66     -159.63   -128.03                                   
 500    CYS A  83     -143.08     41.42                                   
 500    ARG A 236     -123.47   -120.43                                   
 500                                                                      
 500 REMARK: NULL                                                         
 800                                                                      
 800 SITE                                                                 
 800 SITE_IDENTIFIER: AC1                                                 
 800 EVIDENCE_CODE: SOFTWARE                                              
 800 SITE_DESCRIPTION: BINDING SITE FOR RESIDUE TEB A 401                 
 800                                                                      
 800 SITE_IDENTIFIER: AC2                                                 
 800 EVIDENCE_CODE: SOFTWARE                                              
 800 SITE_DESCRIPTION: BINDING SITE FOR RESIDUE PO4 A 402                 
 800                                                                      
 800 SITE_IDENTIFIER: AC3                                                 
 800 EVIDENCE_CODE: SOFTWARE                                              
 800 SITE_DESCRIPTION: BINDING SITE FOR RESIDUE PO4 A 403                 
 800                                                                      
 800 SITE_IDENTIFIER: AC4                                                 
 800 EVIDENCE_CODE: SOFTWARE                                              
 800 SITE_DESCRIPTION: BINDING SITE FOR RESIDUE PO4 A 404                 
 800                                                                      
 800 SITE_IDENTIFIER: AC5                                                 
 800 EVIDENCE_CODE: SOFTWARE                                              
 800 SITE_DESCRIPTION: BINDING SITE FOR RESIDUE PO4 A 405                 
 900                                                                      
 900 RELATED ENTRIES                                                      
 900 RELATED ID: 4QB8   RELATED DB: PDB                                   

>  <DBREF>
 4Q8I A   41   307  UNP    P9WKD3   BLAC_MYCTU      41    307             

>  <SEQRES>
   1 A  267  GLY ALA ASP LEU ALA ASP ARG PHE ALA GLU LEU GLU ARG          
   2 A  267  ARG TYR ASP ALA ARG LEU GLY VAL TYR VAL PRO ALA THR          
   3 A  267  GLY THR THR ALA ALA ILE GLU TYR ARG ALA ASP GLU ARG          
   4 A  267  PHE ALA PHE CYS SER THR PHE LYS ALA PRO LEU VAL ALA          
   5 A  267  ALA VAL LEU HIS GLN ASN PRO LEU THR HIS LEU ASP LYS          
   6 A  267  LEU ILE THR TYR THR SER ASP ASP ILE ARG SER ILE SER          
   7 A  267  PRO VAL ALA GLN GLN HIS VAL GLN THR GLY MET THR ILE          
   8 A  267  GLY GLN LEU CYS ASP ALA ALA ILE ARG TYR SER ASP GLY          
   9 A  267  THR ALA ALA ASN LEU LEU LEU ALA ASP LEU GLY GLY PRO          
  10 A  267  GLY GLY GLY THR ALA ALA PHE THR GLY TYR LEU ARG SER          
  11 A  267  LEU GLY ASP THR VAL SER ARG LEU ASP ALA GLU GLU PRO          
  12 A  267  GLU LEU ASN ARG ASP PRO PRO GLY ASP GLU ARG ASP THR          
  13 A  267  THR THR PRO HIS ALA ILE ALA LEU VAL LEU GLN GLN LEU          
  14 A  267  VAL LEU GLY ASN ALA LEU PRO PRO ASP LYS ARG ALA LEU          
  15 A  267  LEU THR ASP TRP MET ALA ARG ASN THR THR GLY ALA LYS          
  16 A  267  ARG ILE ARG ALA GLY PHE PRO ALA ASP TRP LYS VAL ILE          
  17 A  267  ASP LYS THR GLY THR GLY ASP TYR GLY ARG ALA ASN ASP          
  18 A  267  ILE ALA VAL VAL TRP SER PRO THR GLY VAL PRO TYR VAL          
  19 A  267  VAL ALA VAL MET SER ASP ARG ALA GLY GLY GLY TYR ASP          
  20 A  267  ALA GLU PRO ARG GLU ALA LEU LEU ALA GLU ALA ALA THR          
  21 A  267  CYS VAL ALA GLY VAL LEU ALA                                  

>  <HET>
 TEB  A 401      25                                                       
 PO4  A 402       5                                                       
 PO4  A 403       5                                                       
 PO4  A 404       5                                                       
 PO4  A 405       5                                                       

>  <HETNAM>
     TEB (4R,5S)-3-(1-(4,5-DIHYDROTHIAZOL-2-YL)AZETIDIN-3-                
   2 TEB  YLTHIO)-5-((2S,3R)-3-HYDROXY-1-OXOBUTAN-2-YL)-4-                
   3 TEB  METHYL-4,5- DIHYDRO-1H-PYRROLE-2-CARBOXYLIC ACID                
     PO4 PHOSPHATE ION                                                    

>  <HETSYN>
     TEB TEBIPENEM (OPEN FORM)                                            

>  <FORMUL>
   2  TEB    C16 H23 N3 O4 S2                                             
   3  PO4    4(O4 P 3-)                                                   
   7  HOH   *348(H2 O)                                                    

>  <HELIX>
   1   1 ASP A   43  TYR A   55  1                                  13    
   2   2 CYS A   83  THR A   85  5                                   3    
   3   3 PHE A   86  ASN A   98  1                                  13    
   4   4 PRO A   99  ASP A  104  5                                   6    
   5   5 THR A  110  ILE A  114  5                                   5    
   6   6 VAL A  120  HIS A  124  5                                   5    
   7   7 ILE A  131  TYR A  141  1                                  11    
   8   8 ASP A  143  GLY A  155  1                                  13    
   9   9 PRO A  157  GLY A  159  5                                   3    
  10  10 GLY A  160  LEU A  171  1                                  12    
  11  11 PRO A  183  ARG A  187  5                                   5    
  12  12 THR A  198  LEU A  211  1                                  14    
  13  13 PRO A  216  ARG A  229  1                                  14    
  14  14 ARG A  236  PHE A  241  1                                   6    
  15  15 ARG A  281  GLY A  285  5                                   5    
  16  16 ARG A  291  ALA A  307  1                                  17    

>  <SHEET>
   1   A 5 ILE A  72  TYR A  74  0                                        
   2   A 5 ARG A  58  VAL A  63 -1  N  VAL A  61   O  TYR A  74           
   3   A 5 PRO A 272  ASP A 280 -1  O  MET A 278   N  GLY A  60           
   4   A 5 ARG A 258  TRP A 266 -1  N  VAL A 265   O  TYR A 273           
   5   A 5 LYS A 246  GLY A 254 -1  N  GLY A 252   O  ASN A 260           
   1   B 2 PHE A  80  ALA A  81  0                                        
   2   B 2 THR A 196  THR A 197 -1  O  THR A 197   N  PHE A  80           
   1   C 2 LEU A 106  ILE A 107  0                                        
   2   C 2 MET A 129  THR A 130 -1  O  MET A 129   N  ILE A 107           

>  <LINK>
       OG  SER A  84                 C7  TEB A 401     1555   1555  1.37  

>  <CISPEP>
   1 GLU A  182    PRO A  183          0         1.65                     

>  <SITE>
   1 AC1 12 CYS A  83  SER A  84  LYS A  87  SER A 142                    
   2 AC1 12 GLU A 182  THR A 232  THR A 251  GLY A 252                    
   3 AC1 12 THR A 253  HOH A 618  HOH A 667  HOH A 772                    
   1 AC2  8 ARG A  79  ARG A 187  GLU A 193  ASP A 255                    
   2 AC2  8 TYR A 286  HOH A 613  HOH A 738  HOH A 813                    
   1 AC3  8 ARG A  75  GLU A  78  GLU A 184  HOH A 525                    
   2 AC3  8 HOH A 533  HOH A 695  HOH A 703  HOH A 806                    
   1 AC4  6 PRO A 216  ASP A 218  LYS A 219  LYS A 235                    
   2 AC4  6 HOH A 603  HOH A 758                                          
   1 AC5  3 ARG A 140  TYR A 141  HOH A 590                               

>  <ORIGX1>
      1.000000  0.000000  0.000000        0.00000                         

>  <ORIGX2>
      0.000000  1.000000  0.000000        0.00000                         

>  <ORIGX3>
      0.000000  0.000000  1.000000        0.00000                         

>  <SCALE1>
      0.020030  0.000000  0.000000        0.00000                         

>  <SCALE2>
      0.000000  0.014700  0.000000        0.00000                         

>  <SCALE3>
      0.000000  0.000000  0.013236        0.00000                         

>  <MASTER>
      305    0    5   16    9    0   10    6 2381    1   46   21          

$$$$
