start_structures/Ligand_Substrate/Ligand_Complex_Stripped/TEM_2A49.pdb
 OpenBabel08222315203D

 17 16  0  0  1  0  0  0  0  0999 V2000
   33.2140   60.2590    8.6460 N   0  0  0  0  0  0  0  0  0  0  0  0
   32.7440   59.1130    7.8770 C   0  0  2  0  0  0  0  0  0  0  0  0
   33.2230   57.7690    8.3730 C   0  0  0  0  0  0  0  0  0  0  0  0
   32.7650   56.7370    7.8820 O   0  0  0  0  0  0  0  0  0  0  0  0
   33.0960   59.2590    6.3890 C   0  0  0  0  0  0  0  0  0  0  0  0
   32.3460   60.3070    5.7640 O   0  0  0  0  0  0  0  0  0  0  0  0
   34.5440   65.4960    2.9460 O   0  0  0  0  0  0  0  0  0  0  0  0
   34.1310   66.4020    3.6680 C   0  0  0  0  0  0  0  0  0  0  0  0
   32.9590   66.1730    4.5860 C   0  0  0  0  0  0  0  0  0  0  0  0
   32.4300   64.8150    4.3860 N   0  0  0  0  0  0  0  0  0  0  0  0
   32.9200   63.8160    5.0950 C   0  0  0  0  0  0  0  0  0  0  0  0
   32.4400   62.5220    4.9320 C   0  0  0  0  0  0  0  0  0  0  0  0
   32.9970   61.5140    5.7120 C   0  0  0  0  0  0  0  0  0  0  0  0
   33.9250   61.8020    6.4650 O   0  0  0  0  0  0  0  0  0  0  0  0
   34.7970   67.7800    3.6440 C   0  0  0  0  0  0  0  0  0  0  0  0
   36.2460   67.6970    4.1270 C   0  0  0  0  0  0  0  0  0  0  0  0
   36.8450   68.9940    4.0620 O   0  0  0  0  0  0  0  0  0  0  0  0
  2  3  1  0  0  0  0
  2  1  1  1  0  0  0
  4  3  2  0  0  0  0
  5  2  1  0  0  0  0
  6 13  1  0  0  0  0
  6  5  1  0  0  0  0
  7  8  2  0  0  0  0
  8  9  1  0  0  0  0
  8 15  1  0  0  0  0
  9 10  1  0  0  0  0
 10 11  2  0  0  0  0
 11 12  1  0  0  0  0
 12 13  1  0  0  0  0
 13 14  2  0  0  0  0
 15 16  1  0  0  0  0
 16 17  1  0  0  0  0
M  END
>  <HEADER>
    HYDROLASE                               28-JUN-05   2A49              

>  <TITLE>
    CRYSTAL STRUCTURE OF CLAVULANIC ACID BOUND TO E166A VARIANT OF SHV-1  
   2 BETA-LACTAMASE                                                       

>  <COMPND>
    MOL_ID: 1;                                                            
   2 MOLECULE: BETA-LACTAMASE SHV-1;                                      
   3 CHAIN: A;                                                            
   4 SYNONYM: PIT-2;                                                      
   5 EC: 3.5.2.6;                                                         
   6 ENGINEERED: YES;                                                     
   7 MUTATION: YES                                                        

>  <SOURCE>
    MOL_ID: 1;                                                            
   2 ORGANISM_SCIENTIFIC: KLEBSIELLA PNEUMONIAE;                          
   3 ORGANISM_TAXID: 573;                                                 
   4 GENE: BLA, SHV1;                                                     
   5 EXPRESSION_SYSTEM: ESCHERICHIA COLI;                                 
   6 EXPRESSION_SYSTEM_TAXID: 562                                         

>  <KEYWDS>
    BETA-LACTAMASE, BETA-LACTAM HYDROLASE, PENICILLINASE, DETERGENT       
   2 BINDING, INHIBITOR DESIGN, COVALENT INTERMEDIATE, HYDROLASE          

>  <EXPDTA>
    X-RAY DIFFRACTION                                                     

>  <AUTHOR>
    P.S.PADAYATTI,M.S.HELFAND,M.A.TOTIR,M.P.CAREY,P.R.CAREY,R.A.BONOMO,   
   2 F.VAN DEN AKKER                                                      

>  <REVDAT>
   6   20-OCT-21 2A49    1       REMARK SEQADV LINK                       
   5   11-OCT-17 2A49    1       REMARK                                   
   4   24-FEB-09 2A49    1       VERSN                                    
   3   18-OCT-05 2A49    1       JRNL                                     
   2   09-AUG-05 2A49    1       SEQADV                                   
   1   02-AUG-05 2A49    0                                                

>  <JRNL>
      AUTH   P.S.PADAYATTI,M.S.HELFAND,M.A.TOTIR,M.P.CAREY,P.R.CAREY,     
      AUTH 2 R.A.BONOMO,F.VAN DEN AKKER                                   
      TITL   HIGH RESOLUTION CRYSTAL STRUCTURES OF THE TRANS-ENAMINE      
      TITL 2 INTERMEDIATES FORMED BY SULBACTAM AND CLAVULANIC ACID AND    
      TITL 3 E166A SHV-1 {BETA}-LACTAMASE.                                
      REF    J.BIOL.CHEM.                  V. 280 34900 2005              
      REFN                   ISSN 0021-9258                               
      PMID   16055923                                                     
      DOI    10.1074/JBC.M505333200                                       

>  <REMARK>
   2                                                                      
   2 RESOLUTION.    1.43 ANGSTROMS.                                       
   3                                                                      
   3 REFINEMENT.                                                          
   3   PROGRAM     : CNS 1.1                                              
   3   AUTHORS     : BRUNGER,ADAMS,CLORE,DELANO,GROS,GROSSE-              
   3               : KUNSTLEVE,JIANG,KUSZEWSKI,NILGES,PANNU,              
   3               : READ,RICE,SIMONSON,WARREN                            
   3                                                                      
   3  REFINEMENT TARGET : ENGH & HUBER                                    
   3                                                                      
   3  DATA USED IN REFINEMENT.                                            
   3   RESOLUTION RANGE HIGH (ANGSTROMS) : 1.43                           
   3   RESOLUTION RANGE LOW  (ANGSTROMS) : 14.44                          
   3   DATA CUTOFF            (SIGMA(F)) : 0.000                          
   3   DATA CUTOFF HIGH         (ABS(F)) : 1129768.660                    
   3   DATA CUTOFF LOW          (ABS(F)) : 0.0000                         
   3   COMPLETENESS (WORKING+TEST)   (%) : 88.7                           
   3   NUMBER OF REFLECTIONS             : 38822                          
   3                                                                      
   3  FIT TO DATA USED IN REFINEMENT.                                     
   3   CROSS-VALIDATION METHOD          : THROUGHOUT                      
   3   FREE R VALUE TEST SET SELECTION  : RANDOM                          
   3   R VALUE            (WORKING SET) : 0.194                           
   3   FREE R VALUE                     : 0.226                           
   3   FREE R VALUE TEST SET SIZE   (%) : 10.000                          
   3   FREE R VALUE TEST SET COUNT      : 3894                            
   3   ESTIMATED ERROR OF FREE R VALUE  : 0.004                           
   3                                                                      
   3  FIT IN THE HIGHEST RESOLUTION BIN.                                  
   3   TOTAL NUMBER OF BINS USED           : 6                            
   3   BIN RESOLUTION RANGE HIGH       (A) : 1.43                         
   3   BIN RESOLUTION RANGE LOW        (A) : 1.52                         
   3   BIN COMPLETENESS (WORKING+TEST) (%) : 52.50                        
   3   REFLECTIONS IN BIN    (WORKING SET) : 3363                         
   3   BIN R VALUE           (WORKING SET) : 0.4870                       
   3   BIN FREE R VALUE                    : 0.5180                       
   3   BIN FREE R VALUE TEST SET SIZE  (%) : 10.70                        
   3   BIN FREE R VALUE TEST SET COUNT     : 405                          
   3   ESTIMATED ERROR OF BIN FREE R VALUE : 0.026                        
   3                                                                      
   3  NUMBER OF NON-HYDROGEN ATOMS USED IN REFINEMENT.                    
   3   PROTEIN ATOMS            : 2019                                    
   3   NUCLEIC ACID ATOMS       : 0                                       
   3   HETEROGEN ATOMS          : 62                                      
   3   SOLVENT ATOMS            : 316                                     
   3                                                                      
   3  B VALUES.                                                           
   3   FROM WILSON PLOT           (A**2) : 17.50                          
   3   MEAN B VALUE      (OVERALL, A**2) : 17.50                          
   3   OVERALL ANISOTROPIC B VALUE.                                       
   3    B11 (A**2) : 2.07000                                              
   3    B22 (A**2) : -1.27000                                             
   3    B33 (A**2) : -0.80000                                             
   3    B12 (A**2) : 0.00000                                              
   3    B13 (A**2) : 0.00000                                              
   3    B23 (A**2) : 0.00000                                              
   3                                                                      
   3  ESTIMATED COORDINATE ERROR.                                         
   3   ESD FROM LUZZATI PLOT        (A) : 0.16                            
   3   ESD FROM SIGMAA              (A) : 0.14                            
   3   LOW RESOLUTION CUTOFF        (A) : 5.00                            
   3                                                                      
   3  CROSS-VALIDATED ESTIMATED COORDINATE ERROR.                         
   3   ESD FROM C-V LUZZATI PLOT    (A) : 0.20                            
   3   ESD FROM C-V SIGMAA          (A) : 0.17                            
   3                                                                      
   3  RMS DEVIATIONS FROM IDEAL VALUES.                                   
   3   BOND LENGTHS                 (A) : 0.011                           
   3   BOND ANGLES            (DEGREES) : 1.600                           
   3   DIHEDRAL ANGLES        (DEGREES) : 21.40                           
   3   IMPROPER ANGLES        (DEGREES) : 1.090                           
   3                                                                      
   3  ISOTROPIC THERMAL MODEL : RESTRAINED                                
   3                                                                      
   3  ISOTROPIC THERMAL FACTOR RESTRAINTS.    RMS    SIGMA                
   3   MAIN-CHAIN BOND              (A**2) : 2.120 ; 3.500                
   3   MAIN-CHAIN ANGLE             (A**2) : 2.780 ; 5.000                
   3   SIDE-CHAIN BOND              (A**2) : 4.510 ; 4.000                
   3   SIDE-CHAIN ANGLE             (A**2) : 5.630 ; 8.000                
   3                                                                      
   3  BULK SOLVENT MODELING.                                              
   3   METHOD USED : FLAT MODEL                                           
   3   KSOL        : 0.34                                                 
   3   BSOL        : 47.42                                                
   3                                                                      
   3  NCS MODEL : NULL                                                    
   3                                                                      
   3  NCS RESTRAINTS.                         RMS   SIGMA/WEIGHT          
   3   GROUP  1  POSITIONAL            (A) : NULL  ; NULL                 
   3   GROUP  1  B-FACTOR           (A**2) : NULL  ; NULL                 
   3                                                                      
   3  PARAMETER FILE  1  : PROTEIN_REP.PARAM                              
   3  PARAMETER FILE  2  : WATER_REP.PARAM                                
   3  PARAMETER FILE  3  : NEW_CYMAL.PAR                                  
   3  PARAMETER FILE  4  : CLAV_DECARBOX.PAR                              
   3  PARAMETER FILE  5  : HEPES.PAR                                      
   3  PARAMETER FILE  6  : NULL                                           
   3  TOPOLOGY FILE  1   : PROTEIN.TOP                                    
   3  TOPOLOGY FILE  2   : WATER.TOP                                      
   3  TOPOLOGY FILE  3   : ION.TOP                                        
   3  TOPOLOGY FILE  4   : NEW_LIGANDS4.TOP                               
   3  TOPOLOGY FILE  5   : NULL                                           
   3  TOPOLOGY FILE  6   : NULL                                           
   3                                                                      
   3  OTHER REFINEMENT REMARKS: NULL                                      
   4                                                                      
   4 2A49 COMPLIES WITH FORMAT V. 3.30, 13-JUL-11                         
 100                                                                      
 100 THIS ENTRY HAS BEEN PROCESSED BY RCSB ON 28-JUL-05.                  
 100 THE DEPOSITION ID IS D_1000033468.                                   
 200                                                                      
 200 EXPERIMENTAL DETAILS                                                 
 200  EXPERIMENT TYPE                : X-RAY DIFFRACTION                  
 200  DATE OF DATA COLLECTION        : 04-SEP-04                          
 200  TEMPERATURE           (KELVIN) : 100                                
 200  PH                             : NULL                               
 200  NUMBER OF CRYSTALS USED        : NULL                               
 200                                                                      
 200  SYNCHROTRON              (Y/N) : Y                                  
 200  RADIATION SOURCE               : ALS                                
 200  BEAMLINE                       : 4.2.2                              
 200  X-RAY GENERATOR MODEL          : NULL                               
 200  MONOCHROMATIC OR LAUE    (M/L) : M                                  
 200  WAVELENGTH OR RANGE        (A) : 1.46                               
 200  MONOCHROMATOR                  : FOCUSED                            
 200  OPTICS                         : NULL                               
 200                                                                      
 200  DETECTOR TYPE                  : CCD                                
 200  DETECTOR MANUFACTURER          : NOIR-1                             
 200  INTENSITY-INTEGRATION SOFTWARE : SOFTWARE AT ALS 4.2.2.             
 200  DATA SCALING SOFTWARE          : CCP4 (TRUNCATE)                    
 200                                                                      
 200  NUMBER OF UNIQUE REFLECTIONS   : 39126                              
 200  RESOLUTION RANGE HIGH      (A) : 1.430                              
 200  RESOLUTION RANGE LOW       (A) : 14.440                             
 200  REJECTION CRITERIA  (SIGMA(I)) : 0.000                              
 200                                                                      
 200 OVERALL.                                                             
 200  COMPLETENESS FOR RANGE     (%) : 88.7                               
 200  DATA REDUNDANCY                : NULL                               
 200  R MERGE                    (I) : NULL                               
 200  R SYM                      (I) : NULL                               
 200  <I/SIGMA(I)> FOR THE DATA SET  : NULL                               
 200                                                                      
 200 IN THE HIGHEST RESOLUTION SHELL.                                     
 200  HIGHEST RESOLUTION SHELL, RANGE HIGH (A) : NULL                     
 200  HIGHEST RESOLUTION SHELL, RANGE LOW  (A) : NULL                     
 200  COMPLETENESS FOR SHELL     (%) : NULL                               
 200  DATA REDUNDANCY IN SHELL       : NULL                               
 200  R MERGE FOR SHELL          (I) : NULL                               
 200  R SYM FOR SHELL            (I) : NULL                               
 200  <I/SIGMA(I)> FOR SHELL         : NULL                               
 200                                                                      
 200 DIFFRACTION PROTOCOL: SINGLE WAVELENGTH                              
 200 METHOD USED TO DETERMINE THE STRUCTURE: MOLECULAR REPLACEMENT        
 200 SOFTWARE USED: CNS                                                   
 200 STARTING MODEL: NULL                                                 
 200                                                                      
 200 REMARK: NULL                                                         
 280                                                                      
 280 CRYSTAL                                                              
 280 SOLVENT CONTENT, VS   (%): 37.84                                     
 280 MATTHEWS COEFFICIENT, VM (ANGSTROMS**3/DA): 1.98                     
 280                                                                      
 280 CRYSTALLIZATION CONDITIONS: NULL                                     
 290                                                                      
 290 CRYSTALLOGRAPHIC SYMMETRY                                            
 290 SYMMETRY OPERATORS FOR SPACE GROUP: P 21 21 21                       
 290                                                                      
 290      SYMOP   SYMMETRY                                                
 290     NNNMMM   OPERATOR                                                
 290       1555   X,Y,Z                                                   
 290       2555   -X+1/2,-Y,Z+1/2                                         
 290       3555   -X,Y+1/2,-Z+1/2                                         
 290       4555   X+1/2,-Y+1/2,-Z                                         
 290                                                                      
 290     WHERE NNN -> OPERATOR NUMBER                                     
 290           MMM -> TRANSLATION VECTOR                                  
 290                                                                      
 290 CRYSTALLOGRAPHIC SYMMETRY TRANSFORMATIONS                            
 290 THE FOLLOWING TRANSFORMATIONS OPERATE ON THE ATOM/HETATM             
 290 RECORDS IN THIS ENTRY TO PRODUCE CRYSTALLOGRAPHICALLY                
 290 RELATED MOLECULES.                                                   
 290   SMTRY1   1  1.000000  0.000000  0.000000        0.00000            
 290   SMTRY2   1  0.000000  1.000000  0.000000        0.00000            
 290   SMTRY3   1  0.000000  0.000000  1.000000        0.00000            
 290   SMTRY1   2 -1.000000  0.000000  0.000000       24.81500            
 290   SMTRY2   2  0.000000 -1.000000  0.000000        0.00000            
 290   SMTRY3   2  0.000000  0.000000  1.000000       42.35500            
 290   SMTRY1   3 -1.000000  0.000000  0.000000        0.00000            
 290   SMTRY2   3  0.000000  1.000000  0.000000       27.60000            
 290   SMTRY3   3  0.000000  0.000000 -1.000000       42.35500            
 290   SMTRY1   4  1.000000  0.000000  0.000000       24.81500            
 290   SMTRY2   4  0.000000 -1.000000  0.000000       27.60000            
 290   SMTRY3   4  0.000000  0.000000 -1.000000        0.00000            
 290                                                                      
 290 REMARK: NULL                                                         
 300                                                                      
 300 BIOMOLECULE: 1                                                       
 300 SEE REMARK 350 FOR THE AUTHOR PROVIDED AND/OR PROGRAM                
 300 GENERATED ASSEMBLY INFORMATION FOR THE STRUCTURE IN                  
 300 THIS ENTRY. THE REMARK MAY ALSO PROVIDE INFORMATION ON               
 300 BURIED SURFACE AREA.                                                 
 350                                                                      
 350 COORDINATES FOR A COMPLETE MULTIMER REPRESENTING THE KNOWN           
 350 BIOLOGICALLY SIGNIFICANT OLIGOMERIZATION STATE OF THE                
 350 MOLECULE CAN BE GENERATED BY APPLYING BIOMT TRANSFORMATIONS          
 350 GIVEN BELOW.  BOTH NON-CRYSTALLOGRAPHIC AND                          
 350 CRYSTALLOGRAPHIC OPERATIONS ARE GIVEN.                               
 350                                                                      
 350 BIOMOLECULE: 1                                                       
 350 AUTHOR DETERMINED BIOLOGICAL UNIT: MONOMERIC                         
 350 APPLY THE FOLLOWING TO CHAINS: A                                     
 350   BIOMT1   1  1.000000  0.000000  0.000000        0.00000            
 350   BIOMT2   1  0.000000  1.000000  0.000000        0.00000            
 350   BIOMT3   1  0.000000  0.000000  1.000000        0.00000            
 465                                                                      
 465 MISSING RESIDUES                                                     
 465 THE FOLLOWING RESIDUES WERE NOT LOCATED IN THE                       
 465 EXPERIMENT. (M=MODEL NUMBER; RES=RESIDUE NAME; C=CHAIN               
 465 IDENTIFIER; SSSEQ=SEQUENCE NUMBER; I=INSERTION CODE.)                
 465                                                                      
 465   M RES C SSSEQI                                                     
 465     LEU A   293                                                      
 465     MET A   294                                                      
 465     ILE A   295                                                      
 465     LEU A   296                                                      
 500                                                                      
 500 GEOMETRY AND STEREOCHEMISTRY                                         
 500 SUBTOPIC: TORSION ANGLES                                             
 500                                                                      
 500 TORSION ANGLES OUTSIDE THE EXPECTED RAMACHANDRAN REGIONS:            
 500 (M=MODEL NUMBER; RES=RESIDUE NAME; C=CHAIN IDENTIFIER;               
 500 SSEQ=SEQUENCE NUMBER; I=INSERTION CODE).                             
 500                                                                      
 500 STANDARD TABLE:                                                      
 500 FORMAT:(10X,I3,1X,A3,1X,A1,I4,A1,4X,F7.2,3X,F7.2)                    
 500                                                                      
 500 EXPECTED VALUES: GJ KLEYWEGT AND TA JONES (1996). PHI/PSI-           
 500 CHOLOGY: RAMACHANDRAN REVISITED. STRUCTURE 4, 1395 - 1400            
 500                                                                      
 500  M RES CSSEQI        PSI       PHI                                   
 500    MET A  69     -145.02     57.01                                   
 500    TYR A 105       86.69     66.48                                   
 500    ALA A 166      -50.02    -27.00                                   
 500                                                                      
 500 REMARK: NULL                                                         
 600                                                                      
 600 HETEROGEN                                                            
 600 ONLY PART OF THE MOLECULE EPE IS VISIBLE AND  MODELED.               
 600 THE MOLECULE MA4 HAS ONE MOLECULE THAT IS PRESENT IN                 
 600 ITS ENTIRITY, THE SECOND HAS A SMALLER PART THAT IS                  
 600 VISIBLE.THE COMPOUND TEM IS COVALENTLY REACTED WITH                  
 600 THE ACTIVE SITE SER70                                                
 610                                                                      
 610 MISSING HETEROATOM                                                   
 610 THE FOLLOWING RESIDUES HAVE MISSING ATOMS (M=MODEL NUMBER;           
 610 RES=RESIDUE NAME; C=CHAIN IDENTIFIER; SSEQ=SEQUENCE NUMBER;          
 610 I=INSERTION CODE):                                                   
 610   M RES C SSEQI                                                      
 610     MA4 A  401                                                       
 610     EPE A  600                                                       
 800                                                                      
 800 SITE                                                                 
 800 SITE_IDENTIFIER: AC1                                                 
 800 EVIDENCE_CODE: SOFTWARE                                              
 800 SITE_DESCRIPTION: BINDING SITE FOR RESIDUE TEM A 501                 
 800                                                                      
 800 SITE_IDENTIFIER: AC2                                                 
 800 EVIDENCE_CODE: SOFTWARE                                              
 800 SITE_DESCRIPTION: BINDING SITE FOR RESIDUE MA4 A 400                 
 800                                                                      
 800 SITE_IDENTIFIER: AC3                                                 
 800 EVIDENCE_CODE: SOFTWARE                                              
 800 SITE_DESCRIPTION: BINDING SITE FOR RESIDUE MA4 A 401                 
 800                                                                      
 800 SITE_IDENTIFIER: AC4                                                 
 800 EVIDENCE_CODE: SOFTWARE                                              
 800 SITE_DESCRIPTION: BINDING SITE FOR RESIDUE EPE A 600                 
 900                                                                      
 900 RELATED ENTRIES                                                      
 900 RELATED ID: 1RCJ   RELATED DB: PDB                                   
 900 TAZOBACTAM BOUND E166A SHV-1 STRUCTURE                               
 900 RELATED ID: 2A3U   RELATED DB: PDB                                   
 900 SULBACTAM BOUND E166A SHV-1 STRUCTURE                                

>  <DBREF>
 2A49 A   26   290  UNP    P14557   BLA1_ECOLI      22    286             

>  <SEQADV>
 2A49 ALA A  166  UNP  P14557    GLU   162 ENGINEERED MUTATION            
 2A49 LEU A  293  UNP  P14557              CLONING ARTIFACT               
 2A49 MET A  294  UNP  P14557              CLONING ARTIFACT               
 2A49 ILE A  295  UNP  P14557              CLONING ARTIFACT               
 2A49 LEU A  296  UNP  P14557              CLONING ARTIFACT               

>  <SEQRES>
   1 A  269  SER PRO GLN PRO LEU GLU GLN ILE LYS LEU SER GLU SER          
   2 A  269  GLN LEU SER GLY ARG VAL GLY MET ILE GLU MET ASP LEU          
   3 A  269  ALA SER GLY ARG THR LEU THR ALA TRP ARG ALA ASP GLU          
   4 A  269  ARG PHE PRO MET MET SER THR PHE LYS VAL VAL LEU CYS          
   5 A  269  GLY ALA VAL LEU ALA ARG VAL ASP ALA GLY ASP GLU GLN          
   6 A  269  LEU GLU ARG LYS ILE HIS TYR ARG GLN GLN ASP LEU VAL          
   7 A  269  ASP TYR SER PRO VAL SER GLU LYS HIS LEU ALA ASP GLY          
   8 A  269  MET THR VAL GLY GLU LEU CYS ALA ALA ALA ILE THR MET          
   9 A  269  SER ASP ASN SER ALA ALA ASN LEU LEU LEU ALA THR VAL          
  10 A  269  GLY GLY PRO ALA GLY LEU THR ALA PHE LEU ARG GLN ILE          
  11 A  269  GLY ASP ASN VAL THR ARG LEU ASP ARG TRP ALA THR GLU          
  12 A  269  LEU ASN GLU ALA LEU PRO GLY ASP ALA ARG ASP THR THR          
  13 A  269  THR PRO ALA SER MET ALA ALA THR LEU ARG LYS LEU LEU          
  14 A  269  THR SER GLN ARG LEU SER ALA ARG SER GLN ARG GLN LEU          
  15 A  269  LEU GLN TRP MET VAL ASP ASP ARG VAL ALA GLY PRO LEU          
  16 A  269  ILE ARG SER VAL LEU PRO ALA GLY TRP PHE ILE ALA ASP          
  17 A  269  LYS THR GLY ALA GLY GLU ARG GLY ALA ARG GLY ILE VAL          
  18 A  269  ALA LEU LEU GLY PRO ASN ASN LYS ALA GLU ARG ILE VAL          
  19 A  269  VAL ILE TYR LEU ARG ASP THR PRO ALA SER MET ALA GLU          
  20 A  269  ARG ASN GLN GLN ILE ALA GLY ILE GLY ALA ALA LEU ILE          
  21 A  269  GLU HIS TRP GLN ARG LEU MET ILE LEU                          

>  <HET>
 TEM  A 501      11                                                       
 MA4  A 400      35                                                       
 MA4  A 401      10                                                       
 EPE  A 600       6                                                       

>  <HETNAM>
     TEM N-(2-HYDROXY-4-OXO-BUTYL)-N-(3-OXO-TRANSPROPENYL)AMINE           
     MA4 CYCLOHEXYL-HEXYL-BETA-D-MALTOSIDE                                
     EPE 4-(2-HYDROXYETHYL)-1-PIPERAZINE ETHANESULFONIC ACID              

>  <HETSYN>
     EPE HEPES                                                            

>  <FORMUL>
   2  TEM    C7 H11 N O3                                                  
   3  MA4    2(C24 H44 O11)                                               
   5  EPE    C8 H18 N2 O4 S                                               
   6  HOH   *316(H2 O)                                                    

>  <HELIX>
   1   1 GLN A   28  SER A   41  1                                  14    
   2   2 THR A   71  ALA A   86  1                                  16    
   3   3 ARG A   98  LEU A  102  5                                   5    
   4   4 VAL A  108  LEU A  113  5                                   6    
   5   5 VAL A  119  SER A  130  1                                  12    
   6   6 ASP A  131  VAL A  142  1                                  12    
   7   7 GLY A  143  ILE A  155  1                                  13    
   8   8 THR A  167  GLU A  171  5                                   5    
   9   9 THR A  182  SER A  196  1                                  15    
  10  10 SER A  200  ASP A  213  1                                  14    
  11  11 ALA A  217  LEU A  225  1                                   9    
  12  12 SER A  271  HIS A  289  1                                  19    

>  <SHEET>
   1   A 5 THR A  56  TRP A  60  0                                        
   2   A 5 ARG A  43  ASP A  50 -1  N  GLU A  48   O  LEU A  57           
   3   A 5 ARG A 259  ARG A 266 -1  O  ILE A 260   N  MET A  49           
   4   A 5 ARG A 244  GLY A 251 -1  N  ARG A 244   O  LEU A 265           
   5   A 5 PHE A 230  ALA A 237 -1  N  PHE A 230   O  GLY A 251           
   1   B 2 PHE A  66  PRO A  67  0                                        
   2   B 2 THR A 180  THR A 181 -1  O  THR A 181   N  PHE A  66           
   1   C 2 LYS A  94  ILE A  95  0                                        
   2   C 2 MET A 117  THR A 118 -1  O  MET A 117   N  ILE A  95           

>  <SSBOND>
   1 CYS A   77    CYS A  123                          1555   1555  2.05  

>  <LINK>
       OG  SER A  70                 C7  TEM A 501     1555   1555  1.37  

>  <SITE>
   1 AC1  8 MET A  69  SER A  70  ASN A 170  GLY A 236                    
   2 AC1  8 ALA A 237  EPE A 600  HOH A 896  HOH A 906                    
   1 AC2 17 ARG A  93  HIS A  96  ARG A  98  ILE A 221                    
   2 AC2 17 VAL A 224  PRO A 226  ALA A 248  VAL A 261                    
   3 AC2 17 ILE A 263  ALA A 280  ALA A 284  GLU A 288                    
   4 AC2 17 HOH A 614  HOH A 633  HOH A 726  HOH A 752                    
   5 AC2 17 HOH A 860                                                     
   1 AC3  2 ARG A 244  ILE A 279                                          
   1 AC4  8 SER A  70  SER A 130  VAL A 216  LYS A 234                    
   2 AC4  8 THR A 235  GLY A 236  ARG A 244  TEM A 501                    

>  <ORIGX1>
      1.000000  0.000000  0.000000        0.00000                         

>  <ORIGX2>
      0.000000  1.000000  0.000000        0.00000                         

>  <ORIGX3>
      0.000000  0.000000  1.000000        0.00000                         

>  <SCALE1>
      0.020149  0.000000  0.000000        0.00000                         

>  <SCALE2>
      0.000000  0.018116  0.000000        0.00000                         

>  <SCALE3>
      0.000000  0.000000  0.011805        0.00000                         

>  <MASTER>
      286    0    4   12    9    0   10    6 2397    1   65   21          

$$$$
