start_structures/Ligand_Substrate/Ligand_Complex_Stripped/TJ7_6UNB.pdb
 OpenBabel08222315203D

 33 34  0  0  1  0  0  0  0  0999 V2000
   -2.4830   -0.4800   14.9740 N   0  0  0  0  0  0  0  0  0  0  0  0
   -2.1090   -1.3800   16.0900 C   0  0  2  0  0  0  0  0  0  0  0  0
   -0.7510   -1.0120   16.6850 C   0  0  0  0  0  0  0  0  0  0  0  0
   -0.4600   -1.5180   17.7700 O   0  0  0  0  0  0  0  0  0  0  0  0
   -2.0690   -2.8290   15.6700 C   0  0  0  0  0  0  0  0  0  0  0  0
   -3.3730   -3.3540   15.5060 O   0  0  0  0  0  0  0  0  0  0  0  0
   -3.4800   -2.6900   13.4080 O   0  0  0  0  0  0  0  0  0  0  0  0
   -3.8370   -3.4580   14.2760 C   0  0  0  0  0  0  0  0  0  0  0  0
   -4.7360   -4.6670   14.0460 C   0  0  2  0  0  0  0  0  0  0  0  0
   -5.4650   -4.9110   15.2330 O   0  0  0  0  0  0  0  0  0  0  0  0
   -6.3420   -6.0370   15.3130 C   0  0  0  0  0  0  0  0  0  0  0  0
   -3.9060   -5.9160   13.7910 C   0  0  1  0  0  0  0  0  0  0  0  0
   -4.7370   -7.2160   12.8900 S   0  0  0  0  0  0  0  0  0  0  0  0
   -3.5150   -7.3390   11.6220 C   0  0  0  0  0  0  0  0  0  0  0  0
   -2.5570   -8.4400   12.0120 C   0  0  0  0  0  0  0  0  0  0  0  0
   -4.1610   -7.5940   10.2740 C   0  0  0  0  0  0  0  0  0  0  0  0
   -2.8260   -5.9630   11.6270 C   0  0  2  0  0  0  0  0  0  0  0  0
   -1.5170   -5.9450   10.8990 C   0  0  0  0  0  0  0  0  0  0  0  0
   -0.4710   -6.0870   11.4510 O   0  0  0  0  0  0  0  0  0  0  0  0
   -1.5520   -5.8120    9.5860 O   0  0  0  0  0  0  0  0  0  0  0  0
   -2.7040   -5.5760   13.0420 N   0  0  0  0  0  0  0  0  0  0  0  0
   -5.6630   -4.4000   12.9870 N   0  0  0  0  0  0  0  0  0  0  0  0
   -6.4400   -3.3570   13.0160 C   0  0  0  0  0  0  0  0  0  0  0  0
   -6.3310   -2.5100   13.9150 O   0  0  0  0  0  0  0  0  0  0  0  0
   -7.5200   -3.2480   11.9390 C   0  0  2  0  0  0  0  0  0  0  0  0
   -8.8210   -2.8500   12.5620 C   0  0  0  0  0  0  0  0  0  0  0  0
   -9.5680   -2.1570   11.9240 O   0  0  0  0  0  0  0  0  0  0  0  0
   -9.1370   -3.2650   13.7990 O   0  0  0  0  0  0  0  0  0  0  0  0
   -7.6920   -4.4900   11.1200 C   0  0  0  0  0  0  0  0  0  0  0  0
   -7.1590   -4.5880    9.8150 C   0  0  0  0  0  0  0  0  0  0  0  0
   -7.4490   -5.8470    9.2430 C   0  0  0  0  0  0  0  0  0  0  0  0
   -8.3460   -6.7980   10.3650 S   0  0  0  0  0  0  0  0  0  0  0  0
   -8.3950   -5.5890   11.5990 C   0  0  0  0  0  0  0  0  0  0  0  0
  2  1  1  6  0  0  0
  2  3  1  0  0  0  0
  3  4  2  0  0  0  0
  5  2  1  0  0  0  0
  6  8  1  0  0  0  0
  6  5  1  0  0  0  0
  7  8  2  0  0  0  0
  9  8  1  1  0  0  0
  9 10  1  0  0  0  0
  9 22  1  0  0  0  0
 10 11  1  0  0  0  0
 12  9  1  6  0  0  0
 12 13  1  0  0  0  0
 12 21  1  0  0  0  0
 13 14  1  0  0  0  0
 14 15  1  0  0  0  0
 14 16  1  0  0  0  0
 14 17  1  0  0  0  0
 17 18  1  1  0  0  0
 17 21  1  0  0  0  0
 18 19  2  0  0  0  0
 18 20  1  0  0  0  0
 22 23  1  0  0  0  0
 23 24  2  0  0  0  0
 25 23  1  1  0  0  0
 25 26  1  0  0  0  0
 25 29  1  0  0  0  0
 26 27  2  0  0  0  0
 26 28  1  0  0  0  0
 29 30  1  0  0  0  0
 29 33  2  0  0  0  0
 30 31  2  0  0  0  0
 31 32  1  0  0  0  0
 32 33  1  0  0  0  0
M  END
>  <HEADER>
    HYDROLASE                               11-OCT-19   6UNB              

>  <TITLE>
    CRYSTAL STRUCTURE OF CTX-M-14 IN COMPLEX WITH TEMOCILLIN              

>  <COMPND>
    MOL_ID: 1;                                                            
   2 MOLECULE: BETA-LACTAMASE;                                            
   3 CHAIN: A, B;                                                         
   4 EC: 3.5.2.6;                                                         
   5 ENGINEERED: YES                                                      

>  <SOURCE>
    MOL_ID: 1;                                                            
   2 ORGANISM_SCIENTIFIC: ESCHERICHIA COLI;                               
   3 ORGANISM_TAXID: 562;                                                 
   4 GENE: BLACTX-M-14;                                                   
   5 EXPRESSION_SYSTEM: ESCHERICHIA COLI;                                 
   6 EXPRESSION_SYSTEM_TAXID: 562                                         

>  <KEYWDS>
    TEMOCILLIN, TICARCILLIN, B-LACTAM, LACTAM, PENICILLIN, CTX-M-14 BETA- 
   2 LACTAMASE, ESBL, EXTENDED SPECTRUM B-LACTAMASE, HYDROLASE            

>  <EXPDTA>
    X-RAY DIFFRACTION                                                     

>  <AUTHOR>
    M.SACCO,Y.CHEN                                                        

>  <REVDAT>
   5   01-JAN-20 6UNB    1       JRNL                                     
   4   25-DEC-19 6UNB    1       SEQADV                                   
   3   18-DEC-19 6UNB    1       SEQRES                                   
   2   20-NOV-19 6UNB    1       JRNL                                     
   1   30-OCT-19 6UNB    0                                                

>  <JRNL>
      AUTH   M.D.SACCO,K.G.KROECK,M.T.KEMP,X.ZHANG,L.D.ANDREWS,Y.CHEN     
      TITL   INFLUENCE OF THE ALPHA-METHOXY GROUP ON THE REACTION OF      
      TITL 2 TEMOCILLIN WITH PSEUDOMONAS AERUGINOSA PBP3 AND CTX-M-14     
      TITL 3 BETA-LACTAMASE.                                              
      REF    ANTIMICROB.AGENTS CHEMOTHER.  V.  64       2019              
      REFN                   ESSN 1098-6596                               
      PMID   31685462                                                     
      DOI    10.1128/AAC.01473-19                                         

>  <REMARK>
   2                                                                      
   2 RESOLUTION.    1.30 ANGSTROMS.                                       
   3                                                                      
   3 REFINEMENT.                                                          
   3   PROGRAM     : REFMAC 5.8.0253                                      
   3   AUTHORS     : MURSHUDOV,SKUBAK,LEBEDEV,PANNU,STEINER,              
   3               : NICHOLLS,WINN,LONG,VAGIN                             
   3                                                                      
   3    REFINEMENT TARGET : MAXIMUM LIKELIHOOD                            
   3                                                                      
   3  DATA USED IN REFINEMENT.                                            
   3   RESOLUTION RANGE HIGH (ANGSTROMS) : 1.30                           
   3   RESOLUTION RANGE LOW  (ANGSTROMS) : 46.69                          
   3   DATA CUTOFF            (SIGMA(F)) : 0.000                          
   3   COMPLETENESS FOR RANGE        (%) : 99.9                           
   3   NUMBER OF REFLECTIONS             : 103064                         
   3                                                                      
   3  FIT TO DATA USED IN REFINEMENT.                                     
   3   CROSS-VALIDATION METHOD          : THROUGHOUT                      
   3   FREE R VALUE TEST SET SELECTION  : RANDOM                          
   3   R VALUE     (WORKING + TEST SET) : 0.127                           
   3   R VALUE            (WORKING SET) : 0.125                           
   3   FREE R VALUE                     : 0.167                           
   3   FREE R VALUE TEST SET SIZE   (%) : 5.100                           
   3   FREE R VALUE TEST SET COUNT      : 5540                            
   3                                                                      
   3  FIT IN THE HIGHEST RESOLUTION BIN.                                  
   3   TOTAL NUMBER OF BINS USED           : NULL                         
   3   BIN RESOLUTION RANGE HIGH       (A) : 1.30                         
   3   BIN RESOLUTION RANGE LOW        (A) : 1.33                         
   3   REFLECTION IN BIN     (WORKING SET) : 7489                         
   3   BIN COMPLETENESS (WORKING+TEST) (%) : 98.40                        
   3   BIN R VALUE           (WORKING SET) : 0.2480                       
   3   BIN FREE R VALUE SET COUNT          : 446                          
   3   BIN FREE R VALUE                    : 0.2670                       
   3                                                                      
   3  NUMBER OF NON-HYDROGEN ATOMS USED IN REFINEMENT.                    
   3   PROTEIN ATOMS            : 3907                                    
   3   NUCLEIC ACID ATOMS       : 0                                       
   3   HETEROGEN ATOMS          : 74                                      
   3   SOLVENT ATOMS            : 732                                     
   3                                                                      
   3  B VALUES.                                                           
   3   FROM WILSON PLOT           (A**2) : NULL                           
   3   MEAN B VALUE      (OVERALL, A**2) : 11.25                          
   3   OVERALL ANISOTROPIC B VALUE.                                       
   3    B11 (A**2) : 0.04000                                              
   3    B22 (A**2) : 0.33000                                              
   3    B33 (A**2) : -0.20000                                             
   3    B12 (A**2) : 0.00000                                              
   3    B13 (A**2) : -0.37000                                             
   3    B23 (A**2) : 0.00000                                              
   3                                                                      
   3  ESTIMATED OVERALL COORDINATE ERROR.                                 
   3   ESU BASED ON R VALUE                            (A): 0.047         
   3   ESU BASED ON FREE R VALUE                       (A): 0.048         
   3   ESU BASED ON MAXIMUM LIKELIHOOD                 (A): 0.034         
   3   ESU FOR B VALUES BASED ON MAXIMUM LIKELIHOOD (A**2): 1.893         
   3                                                                      
   3 CORRELATION COEFFICIENTS.                                            
   3   CORRELATION COEFFICIENT FO-FC      : 0.980                         
   3   CORRELATION COEFFICIENT FO-FC FREE : 0.969                         
   3                                                                      
   3  RMS DEVIATIONS FROM IDEAL VALUES        COUNT    RMS    WEIGHT      
   3   BOND LENGTHS REFINED ATOMS        (A):  4166 ; 0.009 ; 0.013       
   3   BOND LENGTHS OTHERS               (A):  3897 ; 0.009 ; 0.017       
   3   BOND ANGLES REFINED ATOMS   (DEGREES):  5691 ; 1.448 ; 1.672       
   3   BOND ANGLES OTHERS          (DEGREES):  9033 ; 1.591 ; 1.585       
   3   TORSION ANGLES, PERIOD 1    (DEGREES):   543 ; 7.542 ; 5.000       
   3   TORSION ANGLES, PERIOD 2    (DEGREES):   202 ;35.073 ;22.129       
   3   TORSION ANGLES, PERIOD 3    (DEGREES):   681 ;12.787 ;15.000       
   3   TORSION ANGLES, PERIOD 4    (DEGREES):    32 ;13.249 ;15.000       
   3   CHIRAL-CENTER RESTRAINTS       (A**3):   581 ; 0.075 ; 0.200       
   3   GENERAL PLANES REFINED ATOMS      (A):  4742 ; 0.008 ; 0.020       
   3   GENERAL PLANES OTHERS             (A):   814 ; 0.004 ; 0.020       
   3   NON-BONDED CONTACTS REFINED ATOMS (A):  NULL ;  NULL ;  NULL       
   3   NON-BONDED CONTACTS OTHERS        (A):  NULL ;  NULL ;  NULL       
   3   NON-BONDED TORSION REFINED ATOMS  (A):  NULL ;  NULL ;  NULL       
   3   NON-BONDED TORSION OTHERS         (A):  NULL ;  NULL ;  NULL       
   3   H-BOND (X...Y) REFINED ATOMS      (A):  NULL ;  NULL ;  NULL       
   3   H-BOND (X...Y) OTHERS             (A):  NULL ;  NULL ;  NULL       
   3   POTENTIAL METAL-ION REFINED ATOMS (A):  NULL ;  NULL ;  NULL       
   3   POTENTIAL METAL-ION OTHERS        (A):  NULL ;  NULL ;  NULL       
   3   SYMMETRY VDW REFINED ATOMS        (A):  NULL ;  NULL ;  NULL       
   3   SYMMETRY VDW OTHERS               (A):  NULL ;  NULL ;  NULL       
   3   SYMMETRY H-BOND REFINED ATOMS     (A):  NULL ;  NULL ;  NULL       
   3   SYMMETRY H-BOND OTHERS            (A):  NULL ;  NULL ;  NULL       
   3   SYMMETRY METAL-ION REFINED ATOMS  (A):  NULL ;  NULL ;  NULL       
   3   SYMMETRY METAL-ION OTHERS         (A):  NULL ;  NULL ;  NULL       
   3                                                                      
   3  ISOTROPIC THERMAL FACTOR RESTRAINTS.     COUNT   RMS    WEIGHT      
   3   MAIN-CHAIN BOND REFINED ATOMS  (A**2):  NULL ;  NULL ;  NULL       
   3   MAIN-CHAIN BOND OTHER ATOMS    (A**2):  NULL ;  NULL ;  NULL       
   3   MAIN-CHAIN ANGLE REFINED ATOMS (A**2):  NULL ;  NULL ;  NULL       
   3   MAIN-CHAIN ANGLE OTHER ATOMS   (A**2):  NULL ;  NULL ;  NULL       
   3   SIDE-CHAIN BOND REFINED ATOMS  (A**2):  NULL ;  NULL ;  NULL       
   3   SIDE-CHAIN BOND OTHER ATOMS    (A**2):  NULL ;  NULL ;  NULL       
   3   SIDE-CHAIN ANGLE REFINED ATOMS (A**2):  NULL ;  NULL ;  NULL       
   3   SIDE-CHAIN ANGLE OTHER ATOMS   (A**2):  NULL ;  NULL ;  NULL       
   3   LONG RANGE B REFINED ATOMS     (A**2):  NULL ;  NULL ;  NULL       
   3   LONG RANGE B OTHER ATOMS       (A**2):  NULL ;  NULL ;  NULL       
   3                                                                      
   3 ANISOTROPIC THERMAL FACTOR RESTRAINTS.    COUNT   RMS   WEIGHT       
   3   RIGID-BOND RESTRAINTS          (A**2):  8063 ; 6.976 ; 3.000       
   3   SPHERICITY; FREE ATOMS         (A**2):  NULL ;  NULL ;  NULL       
   3   SPHERICITY; BONDED ATOMS       (A**2):  NULL ;  NULL ;  NULL       
   3                                                                      
   3  NCS RESTRAINTS STATISTICS                                           
   3   NUMBER OF DIFFERENT NCS GROUPS : NULL                              
   3                                                                      
   3  TLS DETAILS                                                         
   3   NUMBER OF TLS GROUPS  : NULL                                       
   3                                                                      
   3  BULK SOLVENT MODELLING.                                             
   3   METHOD USED : MASK                                                 
   3   PARAMETERS FOR MASK CALCULATION                                    
   3   VDW PROBE RADIUS   : 1.20                                          
   3   ION PROBE RADIUS   : 0.80                                          
   3   SHRINKAGE RADIUS   : 0.80                                          
   3                                                                      
   3  OTHER REFINEMENT REMARKS: HYDROGENS HAVE BEEN ADDED IN THE RIDING   
   3  POSITIONS U VALUES : REFINED INDIVIDUALLY                           
   4                                                                      
   4 6UNB COMPLIES WITH FORMAT V. 3.30, 13-JUL-11                         
 100                                                                      
 100 THIS ENTRY HAS BEEN PROCESSED BY RCSB ON 15-OCT-19.                  
 100 THE DEPOSITION ID IS D_1000244612.                                   
 200                                                                      
 200 EXPERIMENTAL DETAILS                                                 
 200  EXPERIMENT TYPE                : X-RAY DIFFRACTION                  
 200  DATE OF DATA COLLECTION        : 06-JUN-18                          
 200  TEMPERATURE           (KELVIN) : 100                                
 200  PH                             : NULL                               
 200  NUMBER OF CRYSTALS USED        : 1                                  
 200                                                                      
 200  SYNCHROTRON              (Y/N) : Y                                  
 200  RADIATION SOURCE               : APS                                
 200  BEAMLINE                       : 22-BM                              
 200  X-RAY GENERATOR MODEL          : NULL                               
 200  MONOCHROMATIC OR LAUE    (M/L) : M                                  
 200  WAVELENGTH OR RANGE        (A) : 1                                  
 200  MONOCHROMATOR                  : NULL                               
 200  OPTICS                         : NULL                               
 200                                                                      
 200  DETECTOR TYPE                  : CCD                                
 200  DETECTOR MANUFACTURER          : RAYONIX MX300-HS                   
 200  INTENSITY-INTEGRATION SOFTWARE : MOSFLM                             
 200  DATA SCALING SOFTWARE          : SCALA                              
 200                                                                      
 200  NUMBER OF UNIQUE REFLECTIONS   : 108653                             
 200  RESOLUTION RANGE HIGH      (A) : 1.296                              
 200  RESOLUTION RANGE LOW       (A) : 53.230                             
 200  REJECTION CRITERIA  (SIGMA(I)) : NULL                               
 200                                                                      
 200 OVERALL.                                                             
 200  COMPLETENESS FOR RANGE     (%) : 99.9                               
 200  DATA REDUNDANCY                : 3.700                              
 200  R MERGE                    (I) : NULL                               
 200  R SYM                      (I) : 0.08100                            
 200  <I/SIGMA(I)> FOR THE DATA SET  : 10.0000                            
 200                                                                      
 200 IN THE HIGHEST RESOLUTION SHELL.                                     
 200  HIGHEST RESOLUTION SHELL, RANGE HIGH (A) : 1.30                     
 200  HIGHEST RESOLUTION SHELL, RANGE LOW  (A) : 1.37                     
 200  COMPLETENESS FOR SHELL     (%) : 99.2                               
 200  DATA REDUNDANCY IN SHELL       : 3.60                               
 200  R MERGE FOR SHELL          (I) : 0.58100                            
 200  R SYM FOR SHELL            (I) : 0.58100                            
 200  <I/SIGMA(I)> FOR SHELL         : 1.300                              
 200                                                                      
 200 DIFFRACTION PROTOCOL: SINGLE WAVELENGTH                              
 200 METHOD USED TO DETERMINE THE STRUCTURE: MOLECULAR REPLACEMENT        
 200 SOFTWARE USED: MOLREP                                                
 200 STARTING MODEL: 4UA6                                                 
 200                                                                      
 200 REMARK: NULL                                                         
 280                                                                      
 280 CRYSTAL                                                              
 280 SOLVENT CONTENT, VS   (%): 38.50                                     
 280 MATTHEWS COEFFICIENT, VM (ANGSTROMS**3/DA): 2.00                     
 280                                                                      
 280 CRYSTALLIZATION CONDITIONS: 1.2 M POTASSIUM PHOSPHATE PH 8.3,        
 280  VAPOR DIFFUSION, HANGING DROP, TEMPERATURE 298K                     
 290                                                                      
 290 CRYSTALLOGRAPHIC SYMMETRY                                            
 290 SYMMETRY OPERATORS FOR SPACE GROUP: P 1 21 1                         
 290                                                                      
 290      SYMOP   SYMMETRY                                                
 290     NNNMMM   OPERATOR                                                
 290       1555   X,Y,Z                                                   
 290       2555   -X,Y+1/2,-Z                                             
 290                                                                      
 290     WHERE NNN -> OPERATOR NUMBER                                     
 290           MMM -> TRANSLATION VECTOR                                  
 290                                                                      
 290 CRYSTALLOGRAPHIC SYMMETRY TRANSFORMATIONS                            
 290 THE FOLLOWING TRANSFORMATIONS OPERATE ON THE ATOM/HETATM             
 290 RECORDS IN THIS ENTRY TO PRODUCE CRYSTALLOGRAPHICALLY                
 290 RELATED MOLECULES.                                                   
 290   SMTRY1   1  1.000000  0.000000  0.000000        0.00000            
 290   SMTRY2   1  0.000000  1.000000  0.000000        0.00000            
 290   SMTRY3   1  0.000000  0.000000  1.000000        0.00000            
 290   SMTRY1   2 -1.000000  0.000000  0.000000        0.00000            
 290   SMTRY2   2  0.000000  1.000000  0.000000       53.23000            
 290   SMTRY3   2  0.000000  0.000000 -1.000000        0.00000            
 290                                                                      
 290 REMARK: NULL                                                         
 300                                                                      
 300 BIOMOLECULE: 1                                                       
 300 SEE REMARK 350 FOR THE AUTHOR PROVIDED AND/OR PROGRAM                
 300 GENERATED ASSEMBLY INFORMATION FOR THE STRUCTURE IN                  
 300 THIS ENTRY. THE REMARK MAY ALSO PROVIDE INFORMATION ON               
 300 BURIED SURFACE AREA.                                                 
 350                                                                      
 350 COORDINATES FOR A COMPLETE MULTIMER REPRESENTING THE KNOWN           
 350 BIOLOGICALLY SIGNIFICANT OLIGOMERIZATION STATE OF THE                
 350 MOLECULE CAN BE GENERATED BY APPLYING BIOMT TRANSFORMATIONS          
 350 GIVEN BELOW.  BOTH NON-CRYSTALLOGRAPHIC AND                          
 350 CRYSTALLOGRAPHIC OPERATIONS ARE GIVEN.                               
 350                                                                      
 350 BIOMOLECULE: 1                                                       
 350 AUTHOR DETERMINED BIOLOGICAL UNIT: DIMERIC                           
 350 APPLY THE FOLLOWING TO CHAINS: A, B                                  
 350   BIOMT1   1  1.000000  0.000000  0.000000        0.00000            
 350   BIOMT2   1  0.000000  1.000000  0.000000        0.00000            
 350   BIOMT3   1  0.000000  0.000000  1.000000        0.00000            
 465                                                                      
 465 MISSING RESIDUES                                                     
 465 THE FOLLOWING RESIDUES WERE NOT LOCATED IN THE                       
 465 EXPERIMENT. (M=MODEL NUMBER; RES=RESIDUE NAME; C=CHAIN               
 465 IDENTIFIER; SSSEQ=SEQUENCE NUMBER; I=INSERTION CODE.)                
 465                                                                      
 465   M RES C SSSEQI                                                     
 465     PCA B    25                                                      
 465     THR B    26                                                      
 465     SER B    27                                                      
 500                                                                      
 500 GEOMETRY AND STEREOCHEMISTRY                                         
 500 SUBTOPIC: TORSION ANGLES                                             
 500                                                                      
 500 TORSION ANGLES OUTSIDE THE EXPECTED RAMACHANDRAN REGIONS:            
 500 (M=MODEL NUMBER; RES=RESIDUE NAME; C=CHAIN IDENTIFIER;               
 500 SSEQ=SEQUENCE NUMBER; I=INSERTION CODE).                             
 500                                                                      
 500 STANDARD TABLE:                                                      
 500 FORMAT:(10X,I3,1X,A3,1X,A1,I4,A1,4X,F7.2,3X,F7.2)                    
 500                                                                      
 500 EXPECTED VALUES: GJ KLEYWEGT AND TA JONES (1996). PHI/PSI-           
 500 CHOLOGY: RAMACHANDRAN REVISITED. STRUCTURE 4, 1395 - 1400            
 500                                                                      
 500  M RES CSSEQI        PSI       PHI                                   
 500    CYS A  69     -136.62     47.65                                   
 500    VAL A 103     -130.86   -109.69                                   
 500    TYR A 105       90.62   -162.58                                   
 500    SER A 220     -126.13   -107.25                                   
 500    CYS B  69     -135.50     45.33                                   
 500    VAL B 103     -132.59   -110.72                                   
 500    SER B 220     -128.77   -107.89                                   
 500                                                                      
 500 REMARK: NULL                                                         
 525                                                                      
 525 SOLVENT                                                              
 525                                                                      
 525 THE SOLVENT MOLECULES HAVE CHAIN IDENTIFIERS THAT                    
 525 INDICATE THE POLYMER CHAIN WITH WHICH THEY ARE MOST                  
 525 CLOSELY ASSOCIATED. THE REMARK LISTS ALL THE SOLVENT                 
 525 MOLECULES WHICH ARE MORE THAN 5A AWAY FROM THE                       
 525 NEAREST POLYMER CHAIN (M = MODEL NUMBER;                             
 525 RES=RESIDUE NAME; C=CHAIN IDENTIFIER; SSEQ=SEQUENCE                  
 525 NUMBER; I=INSERTION CODE):                                           
 525                                                                      
 525  M RES CSSEQI                                                        
 525    HOH A 756        DISTANCE =  6.05 ANGSTROMS                       
 525    HOH A 757        DISTANCE =  6.27 ANGSTROMS                       
 525    HOH A 758        DISTANCE =  6.48 ANGSTROMS                       
 525    HOH A 759        DISTANCE =  6.63 ANGSTROMS                       
 525    HOH A 760        DISTANCE =  6.76 ANGSTROMS                       
 525    HOH A 761        DISTANCE =  8.03 ANGSTROMS                       
 525    HOH B 769        DISTANCE =  6.06 ANGSTROMS                       
 525    HOH B 770        DISTANCE =  6.15 ANGSTROMS                       
 525    HOH B 771        DISTANCE =  8.54 ANGSTROMS                       
 800                                                                      
 800 SITE                                                                 
 800 SITE_IDENTIFIER: AC1                                                 
 800 EVIDENCE_CODE: SOFTWARE                                              
 800 SITE_DESCRIPTION: binding site for residue TJ7 A 301                 
 800                                                                      
 800 SITE_IDENTIFIER: AC2                                                 
 800 EVIDENCE_CODE: SOFTWARE                                              
 800 SITE_DESCRIPTION: binding site for residue PO4 A 302                 
 800                                                                      
 800 SITE_IDENTIFIER: AC3                                                 
 800 EVIDENCE_CODE: SOFTWARE                                              
 800 SITE_DESCRIPTION: binding site for residue PO4 A 303                 
 800                                                                      
 800 SITE_IDENTIFIER: AC4                                                 
 800 EVIDENCE_CODE: SOFTWARE                                              
 800 SITE_DESCRIPTION: binding site for residue PO4 A 304                 
 800                                                                      
 800 SITE_IDENTIFIER: AC5                                                 
 800 EVIDENCE_CODE: SOFTWARE                                              
 800 SITE_DESCRIPTION: binding site for residue PO4 B 302                 
 800                                                                      
 800 SITE_IDENTIFIER: AC6                                                 
 800 EVIDENCE_CODE: SOFTWARE                                              
 800 SITE_DESCRIPTION: binding site for Di-peptide TJ7 B 301 and SER B    
 800  70                                                                  
 900                                                                      
 900 RELATED ENTRIES                                                      
 900 RELATED ID: 6UN1   RELATED DB: PDB                                   
 900 PBP3 + TEMOCILLIN                                                    
 900 RELATED ID: 6UN3   RELATED DB: PDB                                   
 900 PBP3 + TICARCILLIN                                                   

>  <DBREF1>
 6UNB A   25   290  UNP                  A0A2S1PK93_ECOLX                 
 6UNB B   25   290  UNP                  A0A2S1PK93_ECOLX                 

>  <DBREF2>
 6UNB A     A0A2S1PK93                         24         286             
 6UNB B     A0A2S1PK93                         24         286             

>  <SEQRES>
   1 A  263  PCA THR SER ALA VAL GLN GLN LYS LEU ALA ALA LEU GLU          
   2 A  263  LYS SER SER GLY GLY ARG LEU GLY VAL ALA LEU ILE ASP          
   3 A  263  THR ALA ASP ASN THR GLN VAL LEU TYR ARG GLY ASP GLU          
   4 A  263  ARG PHE PRO MET CYS SER THR SER LYS VAL MET ALA ALA          
   5 A  263  ALA ALA VAL LEU LYS GLN SER GLU THR GLN LYS GLN LEU          
   6 A  263  LEU ASN GLN PRO VAL GLU ILE LYS PRO ALA ASP LEU VAL          
   7 A  263  ASN TYR ASN PRO ILE ALA GLU LYS HIS VAL ASN GLY THR          
   8 A  263  MET THR LEU ALA GLU LEU SER ALA ALA ALA LEU GLN TYR          
   9 A  263  SER ASP ASN THR ALA MET ASN LYS LEU ILE ALA GLN LEU          
  10 A  263  GLY GLY PRO GLY GLY VAL THR ALA PHE ALA ARG ALA ILE          
  11 A  263  GLY ASP GLU THR PHE ARG LEU ASP ARG THR GLU PRO THR          
  12 A  263  LEU ASN THR ALA ILE PRO GLY ASP PRO ARG ASP THR THR          
  13 A  263  THR PRO ARG ALA MET ALA GLN THR LEU ARG GLN LEU THR          
  14 A  263  LEU GLY HIS ALA LEU GLY GLU THR GLN ARG ALA GLN LEU          
  15 A  263  VAL THR TRP LEU LYS GLY ASN THR THR GLY ALA ALA SER          
  16 A  263  ILE ARG ALA GLY LEU PRO THR SER TRP THR VAL GLY ASP          
  17 A  263  LYS THR GLY SER GLY ASP TYR GLY THR THR ASN ASP ILE          
  18 A  263  ALA VAL ILE TRP PRO GLN GLY ARG ALA PRO LEU VAL LEU          
  19 A  263  VAL THR TYR PHE THR GLN PRO GLN GLN ASN ALA GLU SER          
  20 A  263  ARG ARG ASP VAL LEU ALA SER ALA ALA ARG ILE ILE ALA          
  21 A  263  GLU GLY LEU                                                  
   1 B  263  PCA THR SER ALA VAL GLN GLN LYS LEU ALA ALA LEU GLU          
   2 B  263  LYS SER SER GLY GLY ARG LEU GLY VAL ALA LEU ILE ASP          
   3 B  263  THR ALA ASP ASN THR GLN VAL LEU TYR ARG GLY ASP GLU          
   4 B  263  ARG PHE PRO MET CYS SER THR SER LYS VAL MET ALA ALA          
   5 B  263  ALA ALA VAL LEU LYS GLN SER GLU THR GLN LYS GLN LEU          
   6 B  263  LEU ASN GLN PRO VAL GLU ILE LYS PRO ALA ASP LEU VAL          
   7 B  263  ASN TYR ASN PRO ILE ALA GLU LYS HIS VAL ASN GLY THR          
   8 B  263  MET THR LEU ALA GLU LEU SER ALA ALA ALA LEU GLN TYR          
   9 B  263  SER ASP ASN THR ALA MET ASN LYS LEU ILE ALA GLN LEU          
  10 B  263  GLY GLY PRO GLY GLY VAL THR ALA PHE ALA ARG ALA ILE          
  11 B  263  GLY ASP GLU THR PHE ARG LEU ASP ARG THR GLU PRO THR          
  12 B  263  LEU ASN THR ALA ILE PRO GLY ASP PRO ARG ASP THR THR          
  13 B  263  THR PRO ARG ALA MET ALA GLN THR LEU ARG GLN LEU THR          
  14 B  263  LEU GLY HIS ALA LEU GLY GLU THR GLN ARG ALA GLN LEU          
  15 B  263  VAL THR TRP LEU LYS GLY ASN THR THR GLY ALA ALA SER          
  16 B  263  ILE ARG ALA GLY LEU PRO THR SER TRP THR VAL GLY ASP          
  17 B  263  LYS THR GLY SER GLY ASP TYR GLY THR THR ASN ASP ILE          
  18 B  263  ALA VAL ILE TRP PRO GLN GLY ARG ALA PRO LEU VAL LEU          
  19 B  263  VAL THR TYR PHE THR GLN PRO GLN GLN ASN ALA GLU SER          
  20 B  263  ARG ARG ASP VAL LEU ALA SER ALA ALA ARG ILE ILE ALA          
  21 B  263  GLU GLY LEU                                                  

>  <HET>
 PCA  A  25       8                                                       
 TJ7  A 301      27                                                       
 PO4  A 302       5                                                       
 PO4  A 303       5                                                       
 PO4  A 304       5                                                       
 TJ7  B 301      27                                                       
 PO4  B 302       5                                                       

>  <HETNAM>
     PCA PYROGLUTAMIC ACID                                                
     TJ7 (2R,4S)-2-[(1S)-1-{[(2R)-2-CARBOXY-2-(THIOPHEN-3-YL)             
   2 TJ7  ACETYL]AMINO}-1-METHOXY-2-OXOETHYL]-5,5-DIMETHYL-1,3-           
   3 TJ7  THIAZOLIDINE-4-CARBOXYLIC ACID                                  
     PO4 PHOSPHATE ION                                                    

>  <HETSYN>
     TJ7 TEMOCILLIN                                                       

>  <FORMUL>
   1  PCA    C5 H7 N O3                                                   
   3  TJ7    2(C16 H20 N2 O7 S2)                                          
   4  PO4    4(O4 P 3-)                                                   
   9  HOH   *732(H2 O)                                                    

>  <HELIX>
   1 AA1 SER A   27  GLY A   41  1                                  15    
   2 AA2 CYS A   69  THR A   71  5                                   3    
   3 AA3 SER A   72  GLU A   85  1                                  14    
   4 AA4 GLN A   89  ASN A   92  5                                   4    
   5 AA5 LYS A   98  LEU A  102  5                                   5    
   6 AA6 ILE A  108  VAL A  113  5                                   6    
   7 AA7 LEU A  119  TYR A  129  1                                  11    
   8 AA8 ASP A  131  LEU A  142  1                                  12    
   9 AA9 GLY A  144  ILE A  155  1                                  12    
  10 AB1 PRO A  167  THR A  171  5                                   5    
  11 AB2 THR A  182  LEU A  195  1                                  14    
  12 AB3 GLY A  200  GLY A  213  1                                  14    
  13 AB4 SER A  220  LEU A  225  5                                   6    
  14 AB5 ARG A  275  GLY A  289  1                                  15    
  15 AB6 VAL B   29  GLY B   41  1                                  13    
  16 AB7 CYS B   69  THR B   71  5                                   3    
  17 AB8 SER B   72  GLU B   85  1                                  14    
  18 AB9 GLN B   89  ASN B   92  5                                   4    
  19 AC1 LYS B   98  LEU B  102  5                                   5    
  20 AC2 ILE B  108  VAL B  113  5                                   6    
  21 AC3 LEU B  119  TYR B  129  1                                  11    
  22 AC4 ASP B  131  LEU B  142  1                                  12    
  23 AC5 GLY B  144  ILE B  155  1                                  12    
  24 AC6 PRO B  167  THR B  171  5                                   5    
  25 AC7 THR B  182  LEU B  195  1                                  14    
  26 AC8 GLY B  200  GLY B  213  1                                  14    
  27 AC9 SER B  220  LEU B  225  5                                   6    
  28 AD1 ARG B  275  LEU B  290  1                                  16    

>  <SHEET>
   1 AA1 5 GLN A  56  TYR A  60  0                                        
   2 AA1 5 ARG A  43  ASP A  50 -1  N  VAL A  46   O  TYR A  60           
   3 AA1 5 LEU A 259  THR A 266 -1  O  TYR A 264   N  GLY A  45           
   4 AA1 5 THR A 244  TRP A 251 -1  N  ILE A 250   O  LEU A 259           
   5 AA1 5 THR A 230  SER A 237 -1  N  GLY A 236   O  ASN A 245           
   1 AA2 2 PHE A  66  PRO A  67  0                                        
   2 AA2 2 THR A 180  THR A 181 -1  O  THR A 181   N  PHE A  66           
   1 AA3 2 PRO A  94  ILE A  97  0                                        
   2 AA3 2 GLY A 115  THR A 118 -1  O  GLY A 115   N  ILE A  97           
   1 AA4 5 GLN B  56  TYR B  60  0                                        
   2 AA4 5 ARG B  43  ASP B  50 -1  N  VAL B  46   O  TYR B  60           
   3 AA4 5 LEU B 259  THR B 266 -1  O  THR B 266   N  ARG B  43           
   4 AA4 5 THR B 243  TRP B 251 -1  N  ILE B 250   O  LEU B 259           
   5 AA4 5 THR B 230  GLY B 238 -1  N  THR B 230   O  TRP B 251           
   1 AA5 2 PHE B  66  PRO B  67  0                                        
   2 AA5 2 THR B 180  THR B 181 -1  O  THR B 181   N  PHE B  66           
   1 AA6 2 PRO B  94  ILE B  97  0                                        
   2 AA6 2 GLY B 115  THR B 118 -1  O  GLY B 115   N  ILE B  97           

>  <LINK>
       C   PCA A  25                 N   THR A  26     1555   1555  1.34  
       OG  SER A  70                 C15 TJ7 A 301     1555   1555  1.32  
       OG  SER B  70                 C15 TJ7 B 301     1555   1555  1.29  

>  <CISPEP>
   1 GLU A  166    PRO A  167          0         2.21                     
   2 GLU B  166    PRO B  167          0         4.08                     

>  <SITE>
   1 AC1 16 SER A  70  LYS A  73  ASN A 104  TYR A 105                    
   2 AC1 16 SER A 130  ASN A 132  ASN A 170  THR A 235                    
   3 AC1 16 GLY A 236  SER A 237  ARG A 276  HOH A 406                    
   4 AC1 16 HOH A 429  HOH A 436  HOH A 557  HOH A 595                    
   1 AC2  2 GLY A 143  GLY A 147                                          
   1 AC3  2 GLN A 188  HOH A 605                                          
   1 AC4  5 LYS A 111  HOH A 441  HOH A 460  HOH A 555                    
   2 AC4  5 HOH B 412                                                     
   1 AC5  6 THR B 202  GLN B 203  HOH B 420  HOH B 431                    
   2 AC5  6 HOH B 453  HOH B 673                                          
   1 AC6 22 THR A 227  MET B  68  CYS B  69  THR B  71                    
   2 AC6 22 SER B  72  LYS B  73  ASN B 104  TYR B 105                    
   3 AC6 22 SER B 130  ASN B 132  ASN B 170  LYS B 234                    
   4 AC6 22 THR B 235  GLY B 236  SER B 237  ARG B 276                    
   5 AC6 22 HOH B 417  HOH B 432  HOH B 435  HOH B 446                    
   6 AC6 22 HOH B 571  HOH B 636                                          

>  <ORIGX1>
      1.000000  0.000000  0.000000        0.00000                         

>  <ORIGX2>
      0.000000  1.000000  0.000000        0.00000                         

>  <ORIGX3>
      0.000000  0.000000  1.000000        0.00000                         

>  <SCALE1>
      0.022168  0.000000  0.004680        0.00000                         

>  <SCALE2>
      0.000000  0.009393  0.000000        0.00000                         

>  <SCALE3>
      0.000000  0.000000  0.021440        0.00000                         

>  <ANISOU>
  330  N   SER A  70      625    550    837     63    542   -127       N  
  331  CA  SER A  70      636    691    933    -10    548     22       C  
  332  C   SER A  70      612    315    841     -6    604    -15       C  
  333  O   SER A  70      925    464    902     87    599    141       O  
  334  CB  SER A  70      621    654    841   -116    306     12       C  
  335  OG  SER A  70      752    799   1121   -358    557   -223       O  
 4019  O7  TJ7 A 301      867    918   1013   -299    383    -40       O  
 4020  C15 TJ7 A 301     1159    644   1126   -477    545   -173       C  
 4021  C6  TJ7 A 301     1040    915   1118   -613    368    -71       C  
 4022  O5  TJ7 A 301     1351   2001   1311  -1054    518     56       O  
 4023  C14 TJ7 A 301     1255   1213   1255   -491    591   -225       C  
 4024  C   TJ7 A 301     1652    889   1454   -405    231   -114       C  
 4025  S   TJ7 A 301     1718   1108   1358   -699    316     40       S  
 4026  C3  TJ7 A 301      673   1049   2435   -576    442    265       C  
 4027  C4  TJ7 A 301     2008   1170   2906   -160   -469    264       C  
 4028  C5  TJ7 A 301     1403   1133   2250   -675    380     25       C  
 4029  C1  TJ7 A 301     1040    890   1762   -510    179    477       C  
 4030  C2  TJ7 A 301     1174    490   2460   -216    314    138       C  
 4031  O1  TJ7 A 301     1282    742   2600    -35      0    -30       O  
 4032  O   TJ7 A 301     1504   1122   2469    145    568     72       O  
 4033  N   TJ7 A 301     1261    670   2194   -665   -205    152       N  
 4034  N1  TJ7 A 301     1298    996   1560   -288    330    -21       N  
 4035  C7  TJ7 A 301     2023    592   1800   -107    271    126       C  
 4036  O2  TJ7 A 301     1963   1296   2404    233    204   -387       O  
 4037  C8  TJ7 A 301     1211   1671   2018   -604    471    -80       C  
 4038  C9  TJ7 A 301     1469   2056   1941    165    298    232       C  
 4039  O4  TJ7 A 301     2263   1805   2744    372   -487     52       O  
 4040  O3  TJ7 A 301     1388   2587   1786   -506    247   -189       O  
 4041  C10 TJ7 A 301     1376   1478   2148    255     79   -143       C  
 4042  C13 TJ7 A 301     2698   2194   2189   -315    197  -1184       C  
 4043  C12 TJ7 A 301     1056   2339   2162    863   -166  -1863       C  
 4044  S1  TJ7 A 301     3307   3225   5551    384  -1138  -1510       S  
 4045  C11 TJ7 A 301     2477   1741   2075    -61   -203    495       C  

>  <MASTER>
      313    0    7   28   18    0   16    6 4713    2   85   42          

$$$$
