start_structures/Ligand_Substrate/Ligand_Complex_Stripped/TVE_7BH5.pdb
 OpenBabel08222315203D

 37 37  0  0  1  0  0  0  0  0999 V2000
   -3.7420   -4.6230   14.8820 N   0  0  0  0  0  0  0  0  0  0  0  0
   -4.9940   -4.8210   15.5910 C   0  0  2  0  0  0  0  0  0  0  0  0
   -5.1520   -6.1870   16.2240 C   0  0  0  0  0  0  0  0  0  0  0  0
   -6.0930   -6.3670   17.0040 O   0  0  0  0  0  0  0  0  0  0  0  0
   -6.1580   -4.5770   14.6280 C   0  0  0  0  0  0  0  0  0  0  0  0
   -6.3250   -3.2090   14.3680 O   0  0  0  0  0  0  0  0  0  0  0  0
   -3.8130   -4.5190   14.0310 H   0  0  0  0  0  0  0  0  0  0  0  0
   -5.0270   -4.1770   16.3160 H   0  0  0  0  0  0  0  0  0  0  0  0
   -5.9770   -5.0360   13.7930 H   0  0  0  0  0  0  0  0  0  0  0  0
   -6.9730   -4.9220   15.0270 H   0  0  0  0  0  0  0  0  0  0  0  0
   -8.5160   -2.7260    9.5860 C   0  0  1  0  0  0  0  0  0  0  0  0
   -7.7690   -3.9390   10.1670 C   0  0  2  0  0  0  0  0  0  0  0  0
   -8.4230   -5.3290   10.3510 C   0  0  0  0  0  0  0  0  0  0  0  0
   -7.4550   -2.2770   11.7190 C   0  0  2  0  0  0  0  0  0  0  0  0
   -7.8190   -1.5130   10.3940 C   0  0  1  0  0  0  0  0  0  0  0  0
   -6.6330   -0.9860    9.7220 C   0  0  0  0  0  0  0  0  0  0  0  0
   -6.2810   -1.7660   12.5950 C   0  0  1  0  0  0  0  0  0  0  0  0
   -6.6780   -0.7060   13.6280 C   0  0  1  0  0  0  0  0  0  0  0  0
   -6.1020    0.5880   13.1310 C   0  0  0  0  0  0  0  0  0  0  0  0
   -5.6430   -2.9840   13.2350 C   0  0  0  0  0  0  0  0  0  0  0  0
   -6.9610   -3.5820   11.1900 N   0  0  0  0  0  0  0  0  0  0  0  0
   -9.0370   -5.5950   11.4000 O   0  5  0  0  0  0  0  0  0  0  0  0
   -8.1790   -6.0440    9.3600 O   0  0  0  0  0  0  0  0  0  0  0  0
   -8.0780   -0.6510   13.6630 O   0  0  0  0  0  0  0  0  0  0  0  0
   -4.6990   -3.4840   12.6770 O   0  0  0  0  0  0  0  0  0  0  0  0
   -8.4210   -2.5360    7.6850 S   0  0  0  0  0  0  0  0  0  0  0  0
   -9.4340   -2.8680    9.7210 H   0  0  0  0  0  0  0  0  0  0  0  0
   -8.3960   -0.7810   10.5050 H   0  0  0  0  0  0  0  0  0  0  0  0
   -5.9030   -1.5590    9.8650 H   0  0  0  0  0  0  0  0  0  0  0  0
   -6.4250   -0.1350   10.0600 H   0  0  0  0  0  0  0  0  0  0  0  0
   -6.7920   -0.9180    8.7990 H   0  0  0  0  0  0  0  0  0  0  0  0
   -5.6240   -1.3520   12.0680 H   0  0  0  0  0  0  0  0  0  0  0  0
   -6.3890   -0.8640   14.5070 H   0  0  0  0  0  0  0  0  0  0  0  0
   -5.6460    0.4810   12.3170 H   0  0  0  0  0  0  0  0  0  0  0  0
   -5.4900    0.9570   13.7390 H   0  0  0  0  0  0  0  0  0  0  0  0
   -6.7660    1.2360   12.9870 H   0  0  0  0  0  0  0  0  0  0  0  0
   -8.3320   -0.6320   14.4620 H   0  0  0  0  0  0  0  0  0  0  0  0
  1  2  1  0  0  0  0
  2  3  1  0  0  0  0
  2  8  1  1  0  0  0
  3  4  2  0  0  0  0
  5 10  1  0  0  0  0
  5  2  1  0  0  0  0
  6 20  1  0  0  0  0
  6  5  1  0  0  0  0
  7  1  1  0  0  0  0
  9  5  1  0  0  0  0
 11 12  1  0  0  0  0
 11 15  1  0  0  0  0
 11 26  1  0  0  0  0
 11 27  1  1  0  0  0
 12 13  1  1  0  0  0
 12 21  1  0  0  0  0
 13 22  2  0  0  0  0
 13 23  1  0  0  0  0
 14 15  1  0  0  0  0
 14 17  1  6  0  0  0
 14 21  1  0  0  0  0
 15 16  1  0  0  0  0
 15 28  1  1  0  0  0
 16 29  1  0  0  0  0
 16 30  1  0  0  0  0
 16 31  1  0  0  0  0
 17 18  1  0  0  0  0
 17 20  1  0  0  0  0
 17 32  1  6  0  0  0
 18 19  1  0  0  0  0
 18 24  1  0  0  0  0
 18 33  1  1  0  0  0
 19 34  1  0  0  0  0
 19 35  1  0  0  0  0
 19 36  1  0  0  0  0
 20 25  2  0  0  0  0
 24 37  1  0  0  0  0
M  CHG  1  22  -1
M  END
>  <HEADER>
    ANTIMICROBIAL PROTEIN                   10-JAN-21   7BH5              

>  <TITLE>
    XFEL STRUCTURE OF THE ERTAPENEM-DERIVED CTX-M-15 ACYLENZYME AFTER     
   2 MIXING FOR 2 SEC USING A PIEZOELECTRIC INJECTOR (POLYPICO)           

>  <COMPND>
    MOL_ID: 1;                                                            
   2 MOLECULE: BETA-LACTAMASE;                                            
   3 CHAIN: A;                                                            
   4 EC: 3.5.2.6;                                                         
   5 ENGINEERED: YES                                                      

>  <SOURCE>
    MOL_ID: 1;                                                            
   2 ORGANISM_SCIENTIFIC: KLEBSIELLA PNEUMONIAE;                          
   3 ORGANISM_TAXID: 573;                                                 
   4 GENE: BLACTX-M-15;                                                   
   5 EXPRESSION_SYSTEM: ESCHERICHIA COLI;                                 
   6 EXPRESSION_SYSTEM_TAXID: 562;                                        
   7 EXPRESSION_SYSTEM_STRAIN: SOLUBL21                                   

>  <KEYWDS>
    SERIAL CRYSTALLOGRAPHY, BETA-LACTAMASE, ANTIBIOTIC, ERTAPENEM, XFEL,  
   2 ANTIMICROBIAL PROTEIN                                                

>  <EXPDTA>
    X-RAY DIFFRACTION                                                     

>  <AUTHOR>
    P.HINCHLIFFE,C.L.TOOKE,A.BUTRYN,J.SPENCER                             

>  <REVDAT>
   2   04-AUG-21 7BH5    1       JRNL                                     
   1   21-JUL-21 7BH5    0                                                

>  <JRNL>
      AUTH   A.BUTRYN,P.S.SIMON,P.ALLER,P.HINCHLIFFE,R.N.MASSAD,G.LEEN,   
      AUTH 2 C.L.TOOKE,I.BOGACZ,I.S.KIM,A.BHOWMICK,A.S.BREWSTER,          
      AUTH 3 N.E.DEVENISH,J.BREM,J.J.A.G.KAMPS,P.A.LANG,P.RABE,D.AXFORD,  
      AUTH 4 J.H.BEALE,B.DAVY,A.EBRAHIM,J.ORLANS,S.L.S.STORM,T.ZHOU,      
      AUTH 5 S.OWADA,R.TANAKA,K.TONO,G.EVANS,R.L.OWEN,F.A.HOULE,          
      AUTH 6 N.K.SAUTER,C.J.SCHOFIELD,J.SPENCER,V.K.YACHANDRA,J.YANO,     
      AUTH 7 J.F.KERN,A.M.ORVILLE                                         
      TITL   AN ON-DEMAND, DROP-ON-DROP METHOD FOR STUDYING ENZYME        
      TITL 2 CATALYSIS BY SERIAL CRYSTALLOGRAPHY.                         
      REF    NAT COMMUN                    V.  12  4461 2021              
      REFN                   ESSN 2041-1723                               
      PMID   34294694                                                     
      DOI    10.1038/S41467-021-24757-7                                   

>  <REMARK>
   2                                                                      
   2 RESOLUTION.    1.55 ANGSTROMS.                                       
   3                                                                      
   3 REFINEMENT.                                                          
   3   PROGRAM     : PHENIX 1.18.2_3874                                   
   3   AUTHORS     : PAUL ADAMS,PAVEL AFONINE,VINCENT CHEN,IAN            
   3               : DAVIS,KRESHNA GOPAL,RALF GROSSE-KUNSTLEVE,           
   3               : LI-WEI HUNG,ROBERT IMMORMINO,TOM IOERGER,            
   3               : AIRLIE MCCOY,ERIK MCKEE,NIGEL MORIARTY,              
   3               : REETAL PAI,RANDY READ,JANE RICHARDSON,               
   3               : DAVID RICHARDSON,TOD ROMO,JIM SACCHETTINI,           
   3               : NICHOLAS SAUTER,JACOB SMITH,LAURENT                  
   3               : STORONI,TOM TERWILLIGER,PETER ZWART                  
   3                                                                      
   3    REFINEMENT TARGET : GEOSTD + MONOMER LIBRARY + CDL V1.2           
   3                                                                      
   3  DATA USED IN REFINEMENT.                                            
   3   RESOLUTION RANGE HIGH (ANGSTROMS) : 1.55                           
   3   RESOLUTION RANGE LOW  (ANGSTROMS) : 31.94                          
   3   MIN(FOBS/SIGMA_FOBS)              : 1.330                          
   3   COMPLETENESS FOR RANGE        (%) : 99.6                           
   3   NUMBER OF REFLECTIONS             : 35617                          
   3                                                                      
   3  FIT TO DATA USED IN REFINEMENT.                                     
   3   R VALUE     (WORKING + TEST SET) : 0.179                           
   3   R VALUE            (WORKING SET) : 0.178                           
   3   FREE R VALUE                     : 0.202                           
   3   FREE R VALUE TEST SET SIZE   (%) : 5.010                           
   3   FREE R VALUE TEST SET COUNT      : 1783                            
   3                                                                      
   3  FIT TO DATA USED IN REFINEMENT (IN BINS).                           
   3   BIN  RESOLUTION RANGE  COMPL.    NWORK NFREE   RWORK  RFREE        
   3     1 31.9400 -  3.6400    1.00     2806   163  0.1478 0.1645        
   3     2  3.6400 -  2.8900    1.00     2681   112  0.1509 0.1416        
   3     3  2.8900 -  2.5300    1.00     2643   129  0.1695 0.2089        
   3     4  2.5300 -  2.3000    1.00     2640   127  0.1685 0.1968        
   3     5  2.3000 -  2.1300    1.00     2595   130  0.1677 0.2113        
   3     6  2.1300 -  2.0100    1.00     2619   127  0.1740 0.1902        
   3     7  2.0100 -  1.9100    1.00     2581   145  0.1862 0.2488        
   3     8  1.9100 -  1.8200    1.00     2596   112  0.2085 0.2268        
   3     9  1.8200 -  1.7500    1.00     2570   151  0.2224 0.2734        
   3    10  1.7500 -  1.6900    1.00     2548   171  0.2498 0.2962        
   3    11  1.6900 -  1.6400    1.00     2528   164  0.3310 0.3538        
   3    12  1.6400 -  1.5900    0.98     2518   124  0.4077 0.4976        
   3    13  1.5900 -  1.5500    0.97     2509   128  0.4272 0.4069        
   3                                                                      
   3  BULK SOLVENT MODELLING.                                             
   3   METHOD USED        : FLAT BULK SOLVENT MODEL                       
   3   SOLVENT RADIUS     : 1.11                                          
   3   SHRINKAGE RADIUS   : 0.90                                          
   3   K_SOL              : NULL                                          
   3   B_SOL              : NULL                                          
   3                                                                      
   3  ERROR ESTIMATES.                                                    
   3   COORDINATE ERROR (MAXIMUM-LIKELIHOOD BASED)     : 0.242            
   3   PHASE ERROR (DEGREES, MAXIMUM-LIKELIHOOD BASED) : 24.597           
   3                                                                      
   3  B VALUES.                                                           
   3   FROM WILSON PLOT           (A**2) : 22.37                          
   3   MEAN B VALUE      (OVERALL, A**2) : 27.62                          
   3   OVERALL ANISOTROPIC B VALUE.                                       
   3    B11 (A**2) : NULL                                                 
   3    B22 (A**2) : NULL                                                 
   3    B33 (A**2) : NULL                                                 
   3    B12 (A**2) : NULL                                                 
   3    B13 (A**2) : NULL                                                 
   3    B23 (A**2) : NULL                                                 
   3                                                                      
   3  TWINNING INFORMATION.                                               
   3   FRACTION: NULL                                                     
   3   OPERATOR: NULL                                                     
   3                                                                      
   3  DEVIATIONS FROM IDEAL VALUES.                                       
   3                 RMSD          COUNT                                  
   3   BOND      :  0.010           2028                                  
   3   ANGLE     :  1.073           2760                                  
   3   CHIRALITY :  0.057            324                                  
   3   PLANARITY :  0.007            363                                  
   3   DIHEDRAL  : 19.299            760                                  
   3                                                                      
   3  TLS DETAILS                                                         
   3   NUMBER OF TLS GROUPS  : 7                                          
   3   TLS GROUP : 1                                                      
   3    SELECTION: CHAIN 'A' AND (RESID 28 THROUGH 51 )                   
   3    ORIGIN FOR THE GROUP (A):   5.2084 -20.5743   4.0859              
   3    T TENSOR                                                          
   3      T11:   0.2073 T22:   0.2545                                     
   3      T33:   0.2808 T12:   0.0102                                     
   3      T13:   0.0198 T23:  -0.0579                                     
   3    L TENSOR                                                          
   3      L11:   3.6825 L22:   7.7413                                     
   3      L33:   5.8706 L12:   3.3652                                     
   3      L13:  -2.2476 L23:  -3.3610                                     
   3    S TENSOR                                                          
   3      S11:  -0.1584 S12:   0.4444 S13:  -0.5413                       
   3      S21:  -0.5207 S22:   0.1065 S23:  -0.6214                       
   3      S31:   0.2926 S32:   0.0919 S33:   0.0758                       
   3   TLS GROUP : 2                                                      
   3    SELECTION: CHAIN 'A' AND (RESID 52 THROUGH 96 )                   
   3    ORIGIN FOR THE GROUP (A):  -5.5926 -11.5114  23.7987              
   3    T TENSOR                                                          
   3      T11:   0.2026 T22:   0.2161                                     
   3      T33:   0.1689 T12:  -0.0165                                     
   3      T13:  -0.0219 T23:   0.0030                                     
   3    L TENSOR                                                          
   3      L11:   1.9459 L22:   1.8911                                     
   3      L33:   1.1207 L12:  -0.5980                                     
   3      L13:  -0.9353 L23:   0.3305                                     
   3    S TENSOR                                                          
   3      S11:  -0.0075 S12:  -0.1962 S13:   0.0534                       
   3      S21:   0.1611 S22:   0.0173 S23:   0.0585                       
   3      S31:   0.0436 S32:   0.0843 S33:   0.0023                       
   3   TLS GROUP : 3                                                      
   3    SELECTION: CHAIN 'A' AND (RESID 97 THROUGH 115 )                  
   3    ORIGIN FOR THE GROUP (A): -15.7327   7.9269  18.5428              
   3    T TENSOR                                                          
   3      T11:   0.2569 T22:   0.2081                                     
   3      T33:   0.2745 T12:   0.0081                                     
   3      T13:  -0.0297 T23:   0.0341                                     
   3    L TENSOR                                                          
   3      L11:   6.5341 L22:   5.6701                                     
   3      L33:   2.9826 L12:  -2.0704                                     
   3      L13:  -3.4791 L23:   3.4293                                     
   3    S TENSOR                                                          
   3      S11:   0.0897 S12:   0.2279 S13:   0.2543                       
   3      S21:  -0.4795 S22:  -0.0828 S23:   0.3864                       
   3      S31:  -0.4503 S32:  -0.0215 S33:   0.0377                       
   3   TLS GROUP : 4                                                      
   3    SELECTION: CHAIN 'A' AND (RESID 116 THROUGH 155 )                 
   3    ORIGIN FOR THE GROUP (A):  -9.1609  -3.1878  25.6004              
   3    T TENSOR                                                          
   3      T11:   0.1708 T22:   0.1576                                     
   3      T33:   0.1400 T12:  -0.0236                                     
   3      T13:   0.0225 T23:  -0.0022                                     
   3    L TENSOR                                                          
   3      L11:   6.4617 L22:   2.9168                                     
   3      L33:   0.7022 L12:  -2.3641                                     
   3      L13:   1.2179 L23:  -0.3439                                     
   3    S TENSOR                                                          
   3      S11:  -0.0122 S12:  -0.0197 S13:   0.0704                       
   3      S21:   0.0900 S22:   0.0067 S23:   0.1297                       
   3      S31:  -0.0022 S32:  -0.0137 S33:   0.0085                       
   3   TLS GROUP : 5                                                      
   3    SELECTION: CHAIN 'A' AND (RESID 156 THROUGH 250 )                 
   3    ORIGIN FOR THE GROUP (A):  -5.0189 -12.6659  17.5800              
   3    T TENSOR                                                          
   3      T11:   0.1767 T22:   0.1608                                     
   3      T33:   0.1633 T12:   0.0073                                     
   3      T13:  -0.0019 T23:   0.0025                                     
   3    L TENSOR                                                          
   3      L11:   0.7915 L22:   1.0835                                     
   3      L33:   1.1580 L12:   0.2779                                     
   3      L13:  -0.0193 L23:   0.2927                                     
   3    S TENSOR                                                          
   3      S11:   0.0104 S12:  -0.0060 S13:  -0.0082                       
   3      S21:  -0.0072 S22:   0.0010 S23:   0.0513                       
   3      S31:   0.0302 S32:  -0.0318 S33:  -0.0119                       
   3   TLS GROUP : 6                                                      
   3    SELECTION: CHAIN 'A' AND (RESID 251 THROUGH 273 )                 
   3    ORIGIN FOR THE GROUP (A):  -2.3562 -14.8083   7.7184              
   3    T TENSOR                                                          
   3      T11:   0.2152 T22:   0.1450                                     
   3      T33:   0.1225 T12:   0.0259                                     
   3      T13:   0.0180 T23:  -0.0577                                     
   3    L TENSOR                                                          
   3      L11:   6.8689 L22:   3.3281                                     
   3      L33:   3.9313 L12:   4.2941                                     
   3      L13:  -3.0823 L23:  -3.3782                                     
   3    S TENSOR                                                          
   3      S11:  -0.0143 S12:   0.1840 S13:  -0.1915                       
   3      S21:  -0.2969 S22:   0.0070 S23:  -0.1584                       
   3      S31:   0.2118 S32:   0.0664 S33:  -0.1413                       
   3   TLS GROUP : 7                                                      
   3    SELECTION: CHAIN 'A' AND (RESID 274 THROUGH 287 )                 
   3    ORIGIN FOR THE GROUP (A):  -3.6087 -19.6105   3.1521              
   3    T TENSOR                                                          
   3      T11:   0.2710 T22:   0.2239                                     
   3      T33:   0.1583 T12:  -0.0152                                     
   3      T13:  -0.0025 T23:  -0.0287                                     
   3    L TENSOR                                                          
   3      L11:   4.7775 L22:   3.4806                                     
   3      L33:   3.6060 L12:  -1.2769                                     
   3      L13:   0.6732 L23:  -3.4923                                     
   3    S TENSOR                                                          
   3      S11:  -0.0084 S12:   0.3314 S13:  -0.0542                       
   3      S21:  -0.5959 S22:   0.1952 S23:   0.1125                       
   3      S31:   0.2961 S32:  -0.1359 S33:  -0.1070                       
   3                                                                      
   3  NCS DETAILS                                                         
   3   NUMBER OF NCS GROUPS : NULL                                        
   3                                                                      
   3  OTHER REFINEMENT REMARKS: NULL                                      
   4                                                                      
   4 7BH5 COMPLIES WITH FORMAT V. 3.30, 13-JUL-11                         
 100                                                                      
 100 THIS ENTRY HAS BEEN PROCESSED BY PDBE ON 13-JAN-21.                  
 100 THE DEPOSITION ID IS D_1292113363.                                   
 200                                                                      
 200 EXPERIMENTAL DETAILS                                                 
 200  EXPERIMENT TYPE                : X-RAY DIFFRACTION                  
 200  DATE OF DATA COLLECTION        : 12-JUL-19                          
 200  TEMPERATURE           (KELVIN) : 307                                
 200  PH                             : NULL                               
 200  NUMBER OF CRYSTALS USED        : 1                                  
 200                                                                      
 200  SYNCHROTRON              (Y/N) : N                                  
 200  RADIATION SOURCE               : FREE ELECTRON LASER                
 200  BEAMLINE                       : BL2                                
 200  X-RAY GENERATOR MODEL          : SACLA BEAMLINE BL2                 
 200  MONOCHROMATIC OR LAUE    (M/L) : M                                  
 200  WAVELENGTH OR RANGE        (A) : 1.2399                             
 200  MONOCHROMATOR                  : NULL                               
 200  OPTICS                         : NULL                               
 200                                                                      
 200  DETECTOR TYPE                  : CCD                                
 200  DETECTOR MANUFACTURER          : RAYONIX MX300-HS                   
 200  INTENSITY-INTEGRATION SOFTWARE : CCTBX.XFEL                         
 200  DATA SCALING SOFTWARE          : NULL                               
 200                                                                      
 200  NUMBER OF UNIQUE REFLECTIONS   : 35730                              
 200  RESOLUTION RANGE HIGH      (A) : 1.550                              
 200  RESOLUTION RANGE LOW       (A) : 58.780                             
 200  REJECTION CRITERIA  (SIGMA(I)) : NULL                               
 200                                                                      
 200 OVERALL.                                                             
 200  COMPLETENESS FOR RANGE     (%) : 100.0                              
 200  DATA REDUNDANCY                : 134.2                              
 200  R MERGE                    (I) : NULL                               
 200  R SYM                      (I) : NULL                               
 200  <I/SIGMA(I)> FOR THE DATA SET  : 39.5660                            
 200                                                                      
 200 IN THE HIGHEST RESOLUTION SHELL.                                     
 200  HIGHEST RESOLUTION SHELL, RANGE HIGH (A) : 1.55                     
 200  HIGHEST RESOLUTION SHELL, RANGE LOW  (A) : 1.58                     
 200  COMPLETENESS FOR SHELL     (%) : 100.0                              
 200  DATA REDUNDANCY IN SHELL       : 48.45                              
 200  R MERGE FOR SHELL          (I) : NULL                               
 200  R SYM FOR SHELL            (I) : NULL                               
 200  <I/SIGMA(I)> FOR SHELL         : 0.710                              
 200                                                                      
 200 DIFFRACTION PROTOCOL: SINGLE WAVELENGTH                              
 200 METHOD USED TO DETERMINE THE STRUCTURE: MOLECULAR REPLACEMENT        
 200 SOFTWARE USED: PHASER                                                
 200 STARTING MODEL: 6QW8                                                 
 200                                                                      
 200 REMARK: NULL                                                         
 280                                                                      
 280 CRYSTAL                                                              
 280 SOLVENT CONTENT, VS   (%): 41.97                                     
 280 MATTHEWS COEFFICIENT, VM (ANGSTROMS**3/DA): 2.12                     
 280                                                                      
 280 CRYSTALLIZATION CONDITIONS: 2.0 M AMMONIUM SULPHATE, 0.1 M TRIS      
 280  8.0, VAPOR DIFFUSION, SITTING DROP, TEMPERATURE 292K                
 290                                                                      
 290 CRYSTALLOGRAPHIC SYMMETRY                                            
 290 SYMMETRY OPERATORS FOR SPACE GROUP: P 21 21 21                       
 290                                                                      
 290      SYMOP   SYMMETRY                                                
 290     NNNMMM   OPERATOR                                                
 290       1555   X,Y,Z                                                   
 290       2555   -X+1/2,-Y,Z+1/2                                         
 290       3555   -X,Y+1/2,-Z+1/2                                         
 290       4555   X+1/2,-Y+1/2,-Z                                         
 290                                                                      
 290     WHERE NNN -> OPERATOR NUMBER                                     
 290           MMM -> TRANSLATION VECTOR                                  
 290                                                                      
 290 CRYSTALLOGRAPHIC SYMMETRY TRANSFORMATIONS                            
 290 THE FOLLOWING TRANSFORMATIONS OPERATE ON THE ATOM/HETATM             
 290 RECORDS IN THIS ENTRY TO PRODUCE CRYSTALLOGRAPHICALLY                
 290 RELATED MOLECULES.                                                   
 290   SMTRY1   1  1.000000  0.000000  0.000000        0.00000            
 290   SMTRY2   1  0.000000  1.000000  0.000000        0.00000            
 290   SMTRY3   1  0.000000  0.000000  1.000000        0.00000            
 290   SMTRY1   2 -1.000000  0.000000  0.000000       22.42500            
 290   SMTRY2   2  0.000000 -1.000000  0.000000        0.00000            
 290   SMTRY3   2  0.000000  0.000000  1.000000       58.78200            
 290   SMTRY1   3 -1.000000  0.000000  0.000000        0.00000            
 290   SMTRY2   3  0.000000  1.000000  0.000000       22.74650            
 290   SMTRY3   3  0.000000  0.000000 -1.000000       58.78200            
 290   SMTRY1   4  1.000000  0.000000  0.000000       22.42500            
 290   SMTRY2   4  0.000000 -1.000000  0.000000       22.74650            
 290   SMTRY3   4  0.000000  0.000000 -1.000000        0.00000            
 290                                                                      
 290 REMARK: NULL                                                         
 300                                                                      
 300 BIOMOLECULE: 1                                                       
 300 SEE REMARK 350 FOR THE AUTHOR PROVIDED AND/OR PROGRAM                
 300 GENERATED ASSEMBLY INFORMATION FOR THE STRUCTURE IN                  
 300 THIS ENTRY. THE REMARK MAY ALSO PROVIDE INFORMATION ON               
 300 BURIED SURFACE AREA.                                                 
 350                                                                      
 350 COORDINATES FOR A COMPLETE MULTIMER REPRESENTING THE KNOWN           
 350 BIOLOGICALLY SIGNIFICANT OLIGOMERIZATION STATE OF THE                
 350 MOLECULE CAN BE GENERATED BY APPLYING BIOMT TRANSFORMATIONS          
 350 GIVEN BELOW.  BOTH NON-CRYSTALLOGRAPHIC AND                          
 350 CRYSTALLOGRAPHIC OPERATIONS ARE GIVEN.                               
 350                                                                      
 350 BIOMOLECULE: 1                                                       
 350 AUTHOR DETERMINED BIOLOGICAL UNIT: MONOMERIC                         
 350 APPLY THE FOLLOWING TO CHAINS: A                                     
 350   BIOMT1   1  1.000000  0.000000  0.000000        0.00000            
 350   BIOMT2   1  0.000000  1.000000  0.000000        0.00000            
 350   BIOMT3   1  0.000000  0.000000  1.000000        0.00000            
 465                                                                      
 465 MISSING RESIDUES                                                     
 465 THE FOLLOWING RESIDUES WERE NOT LOCATED IN THE                       
 465 EXPERIMENT. (M=MODEL NUMBER; RES=RESIDUE NAME; C=CHAIN               
 465 IDENTIFIER; SSSEQ=SEQUENCE NUMBER; I=INSERTION CODE.)                
 465                                                                      
 465   M RES C SSSEQI                                                     
 465     GLY A    24                                                      
 465     PRO A    25                                                      
 465     GLN A    26                                                      
 465     THR A    27                                                      
 465     LEU A   288                                                      
 470                                                                      
 470 MISSING ATOM                                                         
 470 THE FOLLOWING RESIDUES HAVE MISSING ATOMS (M=MODEL NUMBER;           
 470 RES=RESIDUE NAME; C=CHAIN IDENTIFIER; SSEQ=SEQUENCE NUMBER;          
 470 I=INSERTION CODE):                                                   
 470   M RES CSSEQI  ATOMS                                                
 470     ALA A  28    N    CB                                             
 470     GLY A 287    CA   C    O                                         
 500                                                                      
 500 GEOMETRY AND STEREOCHEMISTRY                                         
 500 SUBTOPIC: CLOSE CONTACTS IN SAME ASYMMETRIC UNIT                     
 500                                                                      
 500 THE FOLLOWING ATOMS ARE IN CLOSE CONTACT.                            
 500                                                                      
 500  ATM1  RES C  SSEQI   ATM2  RES C  SSEQI           DISTANCE          
 500   OG   SER A    86     O    HOH A   401              2.02            
 500   O    HOH A   491     O    HOH A   529              2.12            
 500   O    HOH A   527     O    HOH A   538              2.17            
 500   CB   SER A    70     C29  TVE A   301              2.18            
 500                                                                      
 500 REMARK: NULL                                                         
 500                                                                      
 500 GEOMETRY AND STEREOCHEMISTRY                                         
 500 SUBTOPIC: CLOSE CONTACTS                                             
 500                                                                      
 500 THE FOLLOWING ATOMS THAT ARE RELATED BY CRYSTALLOGRAPHIC             
 500 SYMMETRY ARE IN CLOSE CONTACT.  AN ATOM LOCATED WITHIN 0.15          
 500 ANGSTROMS OF A SYMMETRY RELATED ATOM IS ASSUMED TO BE ON A           
 500 SPECIAL POSITION AND IS, THEREFORE, LISTED IN REMARK 375             
 500 INSTEAD OF REMARK 500.  ATOMS WITH NON-BLANK ALTERNATE               
 500 LOCATION INDICATORS ARE NOT INCLUDED IN THE CALCULATIONS.            
 500                                                                      
 500 DISTANCE CUTOFF:                                                     
 500 2.2 ANGSTROMS FOR CONTACTS NOT INVOLVING HYDROGEN ATOMS              
 500 1.6 ANGSTROMS FOR CONTACTS INVOLVING HYDROGEN ATOMS                  
 500                                                                      
 500  ATM1  RES C  SSEQI   ATM2  RES C  SSEQI  SSYMOP   DISTANCE          
 500   O    HOH A   425     O    HOH A   514     3555     1.94            
 500                                                                      
 500 REMARK: NULL                                                         
 500                                                                      
 500 GEOMETRY AND STEREOCHEMISTRY                                         
 500 SUBTOPIC: TORSION ANGLES                                             
 500                                                                      
 500 TORSION ANGLES OUTSIDE THE EXPECTED RAMACHANDRAN REGIONS:            
 500 (M=MODEL NUMBER; RES=RESIDUE NAME; C=CHAIN IDENTIFIER;               
 500 SSEQ=SEQUENCE NUMBER; I=INSERTION CODE).                             
 500                                                                      
 500 STANDARD TABLE:                                                      
 500 FORMAT:(10X,I3,1X,A3,1X,A1,I4,A1,4X,F7.2,3X,F7.2)                    
 500                                                                      
 500 EXPECTED VALUES: GJ KLEYWEGT AND TA JONES (1996). PHI/PSI-           
 500 CHOLOGY: RAMACHANDRAN REVISITED. STRUCTURE 4, 1395 - 1400            
 500                                                                      
 500  M RES CSSEQI        PSI       PHI                                   
 500    CYS A  69     -138.98     47.38                                   
 500    VAL A 103     -132.37   -124.51                                   
 500    SER A 220     -117.68   -106.86                                   
 500                                                                      
 500 REMARK: NULL                                                         
 610                                                                      
 610 MISSING HETEROATOM                                                   
 610 THE FOLLOWING RESIDUES HAVE MISSING ATOMS (M=MODEL NUMBER;           
 610 RES=RESIDUE NAME; C=CHAIN IDENTIFIER; SSEQ=SEQUENCE NUMBER;          
 610 I=INSERTION CODE):                                                   
 610   M RES C SSEQI                                                      
 610     TVE A  301                                                       
 620                                                                      
 620 METAL COORDINATION                                                   
 620 (M=MODEL NUMBER; RES=RESIDUE NAME; C=CHAIN IDENTIFIER;               
 620 SSEQ=SEQUENCE NUMBER; I=INSERTION CODE):                             
 620                                                                      
 620 COORDINATION ANGLES FOR:  M RES CSSEQI METAL                         
 620                              NA A 303  NA                            
 620 N RES CSSEQI ATOM                                                    
 620 1 ASP A 157   OD2                                                    
 620 2 THR A 181   OG1 120.6                                              
 620 N                    1                                               

>  <DBREF>
 7BH5 A   26   288  UNP    G3G192   G3G192_KLEPN    49    311             

>  <SEQADV>
 7BH5 GLY A   24  UNP  G3G192              EXPRESSION TAG                 
 7BH5 PRO A   25  UNP  G3G192              EXPRESSION TAG                 

>  <SEQRES>
   1 A  265  GLY PRO GLN THR ALA ASP VAL GLN GLN LYS LEU ALA GLU          
   2 A  265  LEU GLU ARG GLN SER GLY GLY ARG LEU GLY VAL ALA LEU          
   3 A  265  ILE ASN THR ALA ASP ASN SER GLN ILE LEU TYR ARG ALA          
   4 A  265  ASP GLU ARG PHE ALA MET CYS SER THR SER LYS VAL MET          
   5 A  265  ALA ALA ALA ALA VAL LEU LYS LYS SER GLU SER GLU PRO          
   6 A  265  ASN LEU LEU ASN GLN ARG VAL GLU ILE LYS LYS SER ASP          
   7 A  265  LEU VAL ASN TYR ASN PRO ILE ALA GLU LYS HIS VAL ASN          
   8 A  265  GLY THR MET SER LEU ALA GLU LEU SER ALA ALA ALA LEU          
   9 A  265  GLN TYR SER ASP ASN VAL ALA MET ASN LYS LEU ILE ALA          
  10 A  265  HIS VAL GLY GLY PRO ALA SER VAL THR ALA PHE ALA ARG          
  11 A  265  GLN LEU GLY ASP GLU THR PHE ARG LEU ASP ARG THR GLU          
  12 A  265  PRO THR LEU ASN THR ALA ILE PRO GLY ASP PRO ARG ASP          
  13 A  265  THR THR SER PRO ARG ALA MET ALA GLN THR LEU ARG ASN          
  14 A  265  LEU THR LEU GLY LYS ALA LEU GLY ASP SER GLN ARG ALA          
  15 A  265  GLN LEU VAL THR TRP MET LYS GLY ASN THR THR GLY ALA          
  16 A  265  ALA SER ILE GLN ALA GLY LEU PRO ALA SER TRP VAL VAL          
  17 A  265  GLY ASP LYS THR GLY SER GLY GLY TYR GLY THR THR ASN          
  18 A  265  ASP ILE ALA VAL ILE TRP PRO LYS ASP ARG ALA PRO LEU          
  19 A  265  ILE LEU VAL THR TYR PHE THR GLN PRO GLN PRO LYS ALA          
  20 A  265  GLU SER ARG ARG ASP VAL LEU ALA SER ALA ALA LYS ILE          
  21 A  265  VAL THR ASP GLY LEU                                          

>  <HET>
 TVE  A 301      27                                                       
  CL  A 302       1                                                       
  NA  A 303       1                                                       

>  <HETNAM>
     TVE (2~{S},3~{R},4~{R})-3-[5-[(3-CARBOXYPHENYL)                      
   2 TVE  CARBAMOYL]PYRROLIDIN-3-YL]SULFANYL-4-METHYL-5-[(2~{S},          
   3 TVE  3~{R})-3-OXIDANYL-1-OXIDANYLIDENE-BUTAN-2-YL]-3,4-              
   4 TVE  DIHYDRO-2~{H}-PYRROLE-2-CARBOXYLIC ACID                         
      CL CHLORIDE ION                                                     
      NA SODIUM ION                                                       

>  <FORMUL>
   2  TVE    C22 H27 N3 O7 S                                              
   3   CL    CL 1-                                                        
   4   NA    NA 1+                                                        
   5  HOH   *143(H2 O)                                                    

>  <HELIX>
   1 AA1 ALA A   28  GLY A   42  1                                  15    
   2 AA2 CYS A   69  THR A   71  5                                   3    
   3 AA3 SER A   72  GLU A   87  1                                  16    
   4 AA4 ASN A   89  ASN A   92  5                                   4    
   5 AA5 LYS A   98  LEU A  102  5                                   5    
   6 AA6 ILE A  108  VAL A  113  5                                   6    
   7 AA7 LEU A  119  SER A  130  1                                  12    
   8 AA8 ASP A  131  GLY A  143  1                                  13    
   9 AA9 GLY A  144  LEU A  155  1                                  12    
  10 AB1 PRO A  167  THR A  171  5                                   5    
  11 AB2 SER A  182  LEU A  195  1                                  14    
  12 AB3 GLY A  200  GLY A  213  1                                  14    
  13 AB4 SER A  220  LEU A  225  5                                   6    
  14 AB5 ARG A  273  ASP A  286  1                                  14    

>  <SHEET>
   1 AA1 5 SER A  56  TYR A  60  0                                        
   2 AA1 5 ARG A  44  ASN A  51 -1  N  VAL A  47   O  TYR A  60           
   3 AA1 5 LEU A 257  THR A 264 -1  O  THR A 264   N  ARG A  44           
   4 AA1 5 THR A 242  TRP A 250 -1  N  ALA A 247   O  LEU A 259           
   5 AA1 5 VAL A 230  GLY A 238 -1  N  GLY A 236   O  ASN A 244           
   1 AA2 2 PHE A  66  ALA A  67  0                                        
   2 AA2 2 THR A 180  THR A 181 -1  O  THR A 181   N  PHE A  66           
   1 AA3 2 ARG A  94  GLU A  96  0                                        
   2 AA3 2 THR A 116  SER A 118 -1  O  MET A 117   N  VAL A  95           

>  <LINK>
       OG  SER A  70                 C29 TVE A 301     1555   1555  1.34  
       OD2 ASP A 157                NA    NA A 303     1555   1555  2.56  
       OG1 THR A 181                NA    NA A 303     1555   1555  2.80  

>  <CISPEP>
   1 GLU A  166    PRO A  167          0         5.13                     

>  <ORIGX1>
      1.000000  0.000000  0.000000        0.00000                         

>  <ORIGX2>
      0.000000  1.000000  0.000000        0.00000                         

>  <ORIGX3>
      0.000000  0.000000  1.000000        0.00000                         

>  <SCALE1>
      0.022297  0.000000  0.000000        0.00000                         

>  <SCALE2>
      0.000000  0.021981  0.000000        0.00000                         

>  <SCALE3>
      0.000000  0.000000  0.008506        0.00000                         

>  <ANISOU>
  641  N   SER A  70     2614   2444   2577    -32     -5    223       N  
  642  CA  SER A  70     2800   2675   2769    -34    -57    197       C  
  643  C   SER A  70     2428   2377   2357    -65   -131    154       C  
  644  O   SER A  70     2669   2652   2620    -78   -156    128       O  
  645  CB  SER A  70     2498   2362   2418     41    -75    259       C  
  646  OG  SER A  70     3486   3273   3459     79      1    306       O  

>  <MASTER>
      394    0    3   14    9    0    0    6 2104    1   31   21          

$$$$
