start_structures/Ligand_Substrate/Ligand_Complex_Stripped/U2Y_6WIF.pdb
 OpenBabel08222315203D

 21 21  0  0  1  0  0  0  0  0999 V2000
    9.5940   -7.0250   10.8460 N   0  0  0  0  0  0  0  0  0  0  0  0
    9.9260   -8.4440   10.8730 C   0  0  2  0  0  0  0  0  0  0  0  0
   11.4240   -8.7100   10.7570 C   0  0  0  0  0  0  0  0  0  0  0  0
   11.8490   -9.8510   10.9650 O   0  0  0  0  0  0  0  0  0  0  0  0
    9.1660   -9.1760    9.7630 C   0  0  0  0  0  0  0  0  0  0  0  0
    7.7570   -9.0530    9.9260 O   0  0  0  0  0  0  0  0  0  0  0  0
    1.6000   -6.5180   12.9430 N   0  0  0  0  0  0  0  0  0  0  0  0
    6.6580   -8.5410    9.1450 B   0  0  0  0  0  0  0  0  0  0  0  0
    1.8160   -4.8940   11.1350 C   0  0  0  0  0  0  0  0  0  0  0  0
    4.5670   -7.7720   12.2690 C   0  0  0  0  0  0  0  0  0  0  0  0
    2.2500   -5.2780   12.5330 C   0  0  0  0  0  0  0  0  0  0  0  0
    0.3280   -6.3310   13.6270 C   0  0  0  0  0  0  0  0  0  0  0  0
    2.1070   -7.7380   12.7310 C   0  0  0  0  0  0  0  0  0  0  0  0
    3.2700   -7.9420   11.8010 C   0  0  0  0  0  0  0  0  0  0  0  0
    3.0590   -8.3230   10.4800 C   0  0  0  0  0  0  0  0  0  0  0  0
    4.1440   -8.5150    9.6320 C   0  0  0  0  0  0  0  0  0  0  0  0
    5.4400   -8.3430   10.1030 C   0  0  0  0  0  0  0  0  0  0  0  0
    5.6500   -7.9640   11.4220 C   0  0  0  0  0  0  0  0  0  0  0  0
    1.6430   -8.7130   13.3000 O   0  0  0  0  0  0  0  0  0  0  0  0
    7.5450   -7.3250    8.8420 O   0  0  0  0  0  0  0  0  0  0  0  0
    6.9570   -9.8910    8.4790 O   0  0  0  0  0  0  0  0  0  0  0  0
  2  1  1  6  0  0  0
  3  2  1  0  0  0  0
  3  4  2  0  0  0  0
  5  6  1  0  0  0  0
  5  2  1  0  0  0  0
  7 12  1  0  0  0  0
  8  6  1  0  0  0  0
  8 17  1  0  0  0  0
  9 11  1  0  0  0  0
 11  7  1  0  0  0  0
 13  7  1  0  0  0  0
 13 19  2  0  0  0  0
 14 10  1  0  0  0  0
 14 13  1  0  0  0  0
 15 14  2  0  0  0  0
 16 17  2  0  0  0  0
 16 15  1  0  0  0  0
 17 18  1  0  0  0  0
 18 10  2  0  0  0  0
 20  8  1  0  0  0  0
 21  8  1  0  0  0  0
M  END
>  <HEADER>
    HYDROLASE/HYDROLASE INHIBITOR           09-APR-20   6WIF              

>  <TITLE>
    CLASS C BETA-LACTAMASE FROM ACINETOBACTER BAUMANNII IN COMPLEX WITH 4-
   2 (ETHYL(METHYL)CARBAMOYL)PHENYL BORONIC ACID                          

>  <COMPND>
    MOL_ID: 1;                                                            
   2 MOLECULE: BETA-LACTAMASE;                                            
   3 CHAIN: A, B, C, D;                                                   
   4 EC: 3.5.2.6;                                                         
   5 ENGINEERED: YES                                                      

>  <SOURCE>
    MOL_ID: 1;                                                            
   2 ORGANISM_SCIENTIFIC: ACINETOBACTER BAUMANNII;                        
   3 ORGANISM_TAXID: 470;                                                 
   4 GENE: AMPC, A7M79_07980, A7M90_05015, BGC29_02775, E5294_06010,      
   5 FJU36_01670, LV38_01949;                                             
   6 EXPRESSION_SYSTEM: ESCHERICHIA COLI BL21(DE3);                       
   7 EXPRESSION_SYSTEM_TAXID: 469008;                                     
   8 EXPRESSION_SYSTEM_STRAIN: BL21(DE3)                                  

>  <KEYWDS>
    CLASS C BETA-LACTAMASE, STRUCTURAL GENOMICS, CSGID, CENTER FOR        
   2 STRUCTURAL GENOMICS OF INFECTIOUS DISEASES, HYDROLASE, HYDROLASE-    
   3 INHIBITOR COMPLEX, HYDROLASE-HYDROLASE INHIBITOR COMPLEX             

>  <EXPDTA>
    X-RAY DIFFRACTION                                                     

>  <AUTHOR>
    C.CHANG,N.MALTSEVA,M.ENDRES,A.JOACHIMIAK,CENTER FOR STRUCTURAL        
   2 GENOMICS OF INFECTIOUS DISEASES (CSGID)                              

>  <REVDAT>
   1   22-APR-20 6WIF    0                                                

>  <JRNL>
      AUTH   C.CHANG,N.MALTSEVA,M.ENDRES,A.JOACHIMIAK,                    
      AUTH 2 CENTER FOR STRUCTURAL GENOMICS OF INFECTIOUS DISEASES        
      AUTH 3 (CSGID)                                                      
      TITL   CLASS C BETA-LACTAMASE FROM ACINETOBACTER BAUMANNII IN       
      TITL 2 COMPLEX WITH 4-(ETHYL(METHYL)CARBAMOYL)PHENYL BORONIC ACID   
      REF    TO BE PUBLISHED                                              
      REFN                                                                

>  <REMARK>
   2                                                                      
   2 RESOLUTION.    2.15 ANGSTROMS.                                       
   3                                                                      
   3 REFINEMENT.                                                          
   3   PROGRAM     : PHENIX 1.17.1_3660                                   
   3   AUTHORS     : PAUL ADAMS,PAVEL AFONINE,VINCENT CHEN,IAN            
   3               : DAVIS,KRESHNA GOPAL,RALF GROSSE-KUNSTLEVE,           
   3               : LI-WEI HUNG,ROBERT IMMORMINO,TOM IOERGER,            
   3               : AIRLIE MCCOY,ERIK MCKEE,NIGEL MORIARTY,              
   3               : REETAL PAI,RANDY READ,JANE RICHARDSON,               
   3               : DAVID RICHARDSON,TOD ROMO,JIM SACCHETTINI,           
   3               : NICHOLAS SAUTER,JACOB SMITH,LAURENT                  
   3               : STORONI,TOM TERWILLIGER,PETER ZWART                  
   3                                                                      
   3    REFINEMENT TARGET : NULL                                          
   3                                                                      
   3  DATA USED IN REFINEMENT.                                            
   3   RESOLUTION RANGE HIGH (ANGSTROMS) : 2.15                           
   3   RESOLUTION RANGE LOW  (ANGSTROMS) : 43.38                          
   3   MIN(FOBS/SIGMA_FOBS)              : 1.340                          
   3   COMPLETENESS FOR RANGE        (%) : 93.3                           
   3   NUMBER OF REFLECTIONS             : 72421                          
   3                                                                      
   3  FIT TO DATA USED IN REFINEMENT.                                     
   3   R VALUE     (WORKING + TEST SET) : 0.195                           
   3   R VALUE            (WORKING SET) : 0.193                           
   3   FREE R VALUE                     : 0.240                           
   3   FREE R VALUE TEST SET SIZE   (%) : 4.880                           
   3   FREE R VALUE TEST SET COUNT      : 3532                            
   3                                                                      
   3  FIT TO DATA USED IN REFINEMENT (IN BINS).                           
   3   BIN  RESOLUTION RANGE  COMPL.    NWORK NFREE   RWORK  RFREE        
   3     1 43.3800 -  6.2800    0.99     3029   149  0.1482 0.1851        
   3     2  6.2800 -  4.9900    1.00     2994   154  0.1549 0.2003        
   3     3  4.9900 -  4.3600    1.00     2994   130  0.1398 0.1697        
   3     4  4.3600 -  3.9600    1.00     2995   143  0.1492 0.1704        
   3     5  3.9600 -  3.6800    1.00     2951   139  0.1615 0.2355        
   3     6  3.6800 -  3.4600    1.00     2993   135  0.1769 0.2235        
   3     7  3.4600 -  3.2900    1.00     2954   147  0.1972 0.2428        
   3     8  3.2900 -  3.1400    1.00     2947   163  0.1993 0.2542        
   3     9  3.1400 -  3.0200    1.00     2936   155  0.2221 0.2589        
   3    10  3.0200 -  2.9200    1.00     2957   150  0.2194 0.2733        
   3    11  2.9200 -  2.8300    1.00     2895   171  0.2275 0.2470        
   3    12  2.8300 -  2.7500    1.00     2909   187  0.2176 0.2703        
   3    13  2.7500 -  2.6700    1.00     2956   146  0.2282 0.2593        
   3    14  2.6700 -  2.6100    1.00     2960   145  0.2292 0.2799        
   3    15  2.6100 -  2.5500    1.00     2950   146  0.2258 0.3153        
   3    16  2.5500 -  2.5000    1.00     2961   162  0.2399 0.2840        
   3    17  2.5000 -  2.4500    1.00     2883   150  0.2374 0.2965        
   3    18  2.4500 -  2.4000    0.99     2950   141  0.2420 0.2887        
   3    19  2.4000 -  2.3600    0.98     2889   135  0.2478 0.3136        
   3    20  2.3600 -  2.3200    0.92     2700   138  0.2425 0.2576        
   3    21  2.3200 -  2.2800    0.87     2531   143  0.2493 0.2901        
   3    22  2.2800 -  2.2400    0.80     2347   122  0.2367 0.3066        
   3    23  2.2400 -  2.2100    0.72     2107   115  0.2439 0.2817        
   3    24  2.2100 -  2.1800    0.58     1701    81  0.2517 0.2963        
   3    25  2.1800 -  2.1500    0.48     1400    85  0.2371 0.2519        
   3                                                                      
   3  BULK SOLVENT MODELLING.                                             
   3   METHOD USED        : NULL                                          
   3   SOLVENT RADIUS     : 1.11                                          
   3   SHRINKAGE RADIUS   : 0.90                                          
   3   K_SOL              : NULL                                          
   3   B_SOL              : NULL                                          
   3                                                                      
   3  ERROR ESTIMATES.                                                    
   3   COORDINATE ERROR (MAXIMUM-LIKELIHOOD BASED)     : 0.260            
   3   PHASE ERROR (DEGREES, MAXIMUM-LIKELIHOOD BASED) : 25.410           
   3                                                                      
   3  B VALUES.                                                           
   3   FROM WILSON PLOT           (A**2) : NULL                           
   3   MEAN B VALUE      (OVERALL, A**2) : 35.18                          
   3   OVERALL ANISOTROPIC B VALUE.                                       
   3    B11 (A**2) : NULL                                                 
   3    B22 (A**2) : NULL                                                 
   3    B33 (A**2) : NULL                                                 
   3    B12 (A**2) : NULL                                                 
   3    B13 (A**2) : NULL                                                 
   3    B23 (A**2) : NULL                                                 
   3                                                                      
   3  TWINNING INFORMATION.                                               
   3   FRACTION: NULL                                                     
   3   OPERATOR: NULL                                                     
   3                                                                      
   3  DEVIATIONS FROM IDEAL VALUES.                                       
   3                 RMSD          COUNT                                  
   3   BOND      :   NULL           NULL                                  
   3   ANGLE     :   NULL           NULL                                  
   3   CHIRALITY :   NULL           NULL                                  
   3   PLANARITY :   NULL           NULL                                  
   3   DIHEDRAL  :   NULL           NULL                                  
   3                                                                      
   3  TLS DETAILS                                                         
   3   NUMBER OF TLS GROUPS  : 30                                         
   3   TLS GROUP : 1                                                      
   3    SELECTION: CHAIN 'A' AND (RESID 28 THROUGH 50 )                   
   3    ORIGIN FOR THE GROUP (A):  18.6631   6.0293  -5.2557              
   3    T TENSOR                                                          
   3      T11:   0.6574 T22:   0.1790                                     
   3      T33:   0.4103 T12:   0.1297                                     
   3      T13:   0.3017 T23:   0.1290                                     
   3    L TENSOR                                                          
   3      L11:   0.4127 L22:   0.7365                                     
   3      L33:   0.2688 L12:  -0.2162                                     
   3      L13:   0.0346 L23:  -0.2763                                     
   3    S TENSOR                                                          
   3      S11:   0.1290 S12:   0.1103 S13:   0.2235                       
   3      S21:  -0.1542 S22:  -0.1208 S23:  -0.2399                       
   3      S31:   0.0109 S32:   0.1021 S33:   0.0167                       
   3   TLS GROUP : 2                                                      
   3    SELECTION: CHAIN 'A' AND (RESID 51 THROUGH 68 )                   
   3    ORIGIN FOR THE GROUP (A):  25.6371   3.2270   2.9220              
   3    T TENSOR                                                          
   3      T11:   0.3663 T22:   0.1130                                     
   3      T33:   0.4382 T12:  -0.0069                                     
   3      T13:   0.2477 T23:   0.0583                                     
   3    L TENSOR                                                          
   3      L11:   0.5603 L22:   0.7833                                     
   3      L33:   0.3134 L12:   0.3974                                     
   3      L13:  -0.0987 L23:  -0.1732                                     
   3    S TENSOR                                                          
   3      S11:   0.1160 S12:  -0.0324 S13:   0.0714                       
   3      S21:   0.0367 S22:  -0.0735 S23:  -0.1292                       
   3      S31:  -0.0046 S32:   0.0399 S33:   0.3071                       
   3   TLS GROUP : 3                                                      
   3    SELECTION: CHAIN 'A' AND (RESID 69 THROUGH 103 )                  
   3    ORIGIN FOR THE GROUP (A):  15.7833  -0.5106  13.9301              
   3    T TENSOR                                                          
   3      T11:   0.4446 T22:   0.1762                                     
   3      T33:   0.2215 T12:  -0.0881                                     
   3      T13:   0.1058 T23:  -0.0374                                     
   3    L TENSOR                                                          
   3      L11:   0.8644 L22:   1.3330                                     
   3      L33:   0.1976 L12:  -0.3056                                     
   3      L13:   0.0464 L23:  -0.1328                                     
   3    S TENSOR                                                          
   3      S11:   0.2375 S12:  -0.2870 S13:   0.2125                       
   3      S21:   0.1059 S22:  -0.1145 S23:  -0.1514                       
   3      S31:   0.0841 S32:   0.0511 S33:  -0.0327                       
   3   TLS GROUP : 4                                                      
   3    SELECTION: CHAIN 'A' AND (RESID 104 THROUGH 129 )                 
   3    ORIGIN FOR THE GROUP (A):   9.9942 -26.6588  25.6041              
   3    T TENSOR                                                          
   3      T11:   0.7098 T22:   0.4854                                     
   3      T33:   0.3699 T12:  -0.1369                                     
   3      T13:   0.0182 T23:   0.2317                                     
   3    L TENSOR                                                          
   3      L11:   1.7528 L22:   0.5346                                     
   3      L33:   0.4949 L12:  -0.0029                                     
   3      L13:   0.5507 L23:   0.4134                                     
   3    S TENSOR                                                          
   3      S11:   0.2098 S12:  -0.4573 S13:  -0.1221                       
   3      S21:   0.2092 S22:  -0.0215 S23:   0.1128                       
   3      S31:   0.0215 S32:  -0.0122 S33:  -0.1194                       
   3   TLS GROUP : 5                                                      
   3    SELECTION: CHAIN 'A' AND (RESID 130 THROUGH 200 )                 
   3    ORIGIN FOR THE GROUP (A):   5.0452 -18.3395  19.5091              
   3    T TENSOR                                                          
   3      T11:   0.4409 T22:   0.3023                                     
   3      T33:   0.2925 T12:  -0.1410                                     
   3      T13:   0.0671 T23:   0.0676                                     
   3    L TENSOR                                                          
   3      L11:   1.1962 L22:   0.9652                                     
   3      L33:   0.5435 L12:  -0.2889                                     
   3      L13:  -0.0619 L23:   0.2662                                     
   3    S TENSOR                                                          
   3      S11:   0.1141 S12:  -0.4510 S13:  -0.2584                       
   3      S21:   0.3990 S22:  -0.0281 S23:   0.3339                       
   3      S31:   0.0726 S32:  -0.1396 S33:  -0.1020                       
   3   TLS GROUP : 6                                                      
   3    SELECTION: CHAIN 'A' AND (RESID 201 THROUGH 263 )                 
   3    ORIGIN FOR THE GROUP (A):  14.3052   0.3621  16.0442              
   3    T TENSOR                                                          
   3      T11:   0.4397 T22:   0.2524                                     
   3      T33:   0.2405 T12:  -0.1272                                     
   3      T13:   0.1343 T23:  -0.0880                                     
   3    L TENSOR                                                          
   3      L11:   0.8133 L22:   0.6378                                     
   3      L33:   0.2039 L12:  -0.5056                                     
   3      L13:  -0.2120 L23:  -0.0638                                     
   3    S TENSOR                                                          
   3      S11:   0.2142 S12:  -0.3428 S13:   0.2673                       
   3      S21:   0.1546 S22:  -0.0897 S23:  -0.0123                       
   3      S31:   0.0235 S32:   0.1093 S33:  -0.0906                       
   3   TLS GROUP : 7                                                      
   3    SELECTION: CHAIN 'A' AND (RESID 264 THROUGH 299 )                 
   3    ORIGIN FOR THE GROUP (A):  22.6057 -18.5045   8.9736              
   3    T TENSOR                                                          
   3      T11:   0.4176 T22:   0.2082                                     
   3      T33:   0.1994 T12:   0.0008                                     
   3      T13:   0.0018 T23:   0.0258                                     
   3    L TENSOR                                                          
   3      L11:   1.5371 L22:   0.8620                                     
   3      L33:   1.0169 L12:   0.5275                                     
   3      L13:   0.2086 L23:   0.5174                                     
   3    S TENSOR                                                          
   3      S11:   0.2491 S12:  -0.2352 S13:  -0.1103                       
   3      S21:   0.0315 S22:  -0.0525 S23:  -0.1436                       
   3      S31:   0.0092 S32:   0.1967 S33:  -0.1743                       
   3   TLS GROUP : 8                                                      
   3    SELECTION: CHAIN 'A' AND (RESID 300 THROUGH 350 )                 
   3    ORIGIN FOR THE GROUP (A):  13.7445 -15.2006   0.4918              
   3    T TENSOR                                                          
   3      T11:   0.4325 T22:   0.1097                                     
   3      T33:   0.1888 T12:   0.0111                                     
   3      T13:   0.0412 T23:  -0.0001                                     
   3    L TENSOR                                                          
   3      L11:   0.6231 L22:   1.0843                                     
   3      L33:   0.3176 L12:  -0.0632                                     
   3      L13:   0.1395 L23:   0.0102                                     
   3    S TENSOR                                                          
   3      S11:   0.2840 S12:  -0.0469 S13:  -0.1054                       
   3      S21:  -0.1219 S22:  -0.2150 S23:   0.1940                       
   3      S31:  -0.0422 S32:   0.0388 S33:  -0.1136                       
   3   TLS GROUP : 9                                                      
   3    SELECTION: CHAIN 'A' AND (RESID 351 THROUGH 382 )                 
   3    ORIGIN FOR THE GROUP (A):  18.3702  -4.2850  -1.8587              
   3    T TENSOR                                                          
   3      T11:   0.5350 T22:   0.1090                                     
   3      T33:   0.2132 T12:   0.0511                                     
   3      T13:   0.1641 T23:   0.0294                                     
   3    L TENSOR                                                          
   3      L11:   0.8511 L22:   1.6734                                     
   3      L33:   0.7650 L12:  -0.6128                                     
   3      L13:   0.2037 L23:  -0.3725                                     
   3    S TENSOR                                                          
   3      S11:   0.1802 S12:   0.0894 S13:   0.0506                       
   3      S21:  -0.2260 S22:  -0.1578 S23:  -0.1307                       
   3      S31:   0.2026 S32:   0.1122 S33:  -0.0030                       
   3   TLS GROUP : 10                                                     
   3    SELECTION: CHAIN 'B' AND (RESID 24 THROUGH 86 )                   
   3    ORIGIN FOR THE GROUP (A):  67.6892   5.4014   0.5770              
   3    T TENSOR                                                          
   3      T11:   0.1580 T22:   0.1446                                     
   3      T33:   0.2459 T12:  -0.0158                                     
   3      T13:  -0.0111 T23:  -0.1279                                     
   3    L TENSOR                                                          
   3      L11:   0.9998 L22:   1.3749                                     
   3      L33:   0.9405 L12:  -0.1800                                     
   3      L13:   0.0686 L23:   0.2904                                     
   3    S TENSOR                                                          
   3      S11:   0.1040 S12:  -0.0719 S13:   0.2436                       
   3      S21:  -0.2108 S22:   0.0423 S23:  -0.3274                       
   3      S31:  -0.1535 S32:   0.1063 S33:  -0.0642                       
   3   TLS GROUP : 11                                                     
   3    SELECTION: CHAIN 'B' AND (RESID 87 THROUGH 129 )                  
   3    ORIGIN FOR THE GROUP (A):  58.7574 -23.2929  21.3489              
   3    T TENSOR                                                          
   3      T11:   0.3612 T22:   0.3222                                     
   3      T33:   0.2382 T12:   0.0182                                     
   3      T13:  -0.0482 T23:   0.0798                                     
   3    L TENSOR                                                          
   3      L11:   0.8318 L22:   1.0109                                     
   3      L33:   0.6380 L12:   0.4276                                     
   3      L13:  -0.4500 L23:  -0.0733                                     
   3    S TENSOR                                                          
   3      S11:  -0.0763 S12:  -0.4446 S13:  -0.3348                       
   3      S21:   0.4565 S22:  -0.0760 S23:  -0.1174                       
   3      S31:   0.3438 S32:   0.1113 S33:  -0.0835                       
   3   TLS GROUP : 12                                                     
   3    SELECTION: CHAIN 'B' AND (RESID 130 THROUGH 200 )                 
   3    ORIGIN FOR THE GROUP (A):  51.1793 -18.4214  18.9924              
   3    T TENSOR                                                          
   3      T11:   0.2418 T22:   0.3055                                     
   3      T33:   0.2257 T12:  -0.0239                                     
   3      T13:  -0.0063 T23:   0.0369                                     
   3    L TENSOR                                                          
   3      L11:   1.0374 L22:   1.0529                                     
   3      L33:   0.8250 L12:   0.0148                                     
   3      L13:  -0.1858 L23:  -0.0714                                     
   3    S TENSOR                                                          
   3      S11:  -0.0036 S12:  -0.3561 S13:  -0.1911                       
   3      S21:   0.4185 S22:   0.0641 S23:   0.1911                       
   3      S31:   0.2365 S32:  -0.0994 S33:  -0.0091                       
   3   TLS GROUP : 13                                                     
   3    SELECTION: CHAIN 'B' AND (RESID 201 THROUGH 263 )                 
   3    ORIGIN FOR THE GROUP (A):  62.1391  -0.8801  15.3023              
   3    T TENSOR                                                          
   3      T11:   0.1602 T22:   0.3317                                     
   3      T33:   0.2432 T12:  -0.0135                                     
   3      T13:  -0.1022 T23:  -0.1693                                     
   3    L TENSOR                                                          
   3      L11:   0.1305 L22:   0.3755                                     
   3      L33:   0.1445 L12:  -0.0090                                     
   3      L13:   0.0024 L23:  -0.2298                                     
   3    S TENSOR                                                          
   3      S11:   0.0466 S12:  -0.2717 S13:   0.0460                       
   3      S21:   0.2860 S22:  -0.0475 S23:  -0.1071                       
   3      S31:  -0.0434 S32:   0.0102 S33:   0.0879                       
   3   TLS GROUP : 14                                                     
   3    SELECTION: CHAIN 'B' AND (RESID 264 THROUGH 299 )                 
   3    ORIGIN FOR THE GROUP (A):  67.7649 -20.1395   7.0705              
   3    T TENSOR                                                          
   3      T11:   0.1528 T22:   0.2054                                     
   3      T33:   0.3643 T12:   0.0540                                     
   3      T13:  -0.1106 T23:  -0.0071                                     
   3    L TENSOR                                                          
   3      L11:   1.5279 L22:   0.3783                                     
   3      L33:   1.1279 L12:   0.2929                                     
   3      L13:   0.3799 L23:  -0.0715                                     
   3    S TENSOR                                                          
   3      S11:   0.0256 S12:  -0.1522 S13:  -0.3445                       
   3      S21:   0.0237 S22:  -0.0864 S23:  -0.4307                       
   3      S31:   0.2194 S32:   0.1155 S33:  -0.2386                       
   3   TLS GROUP : 15                                                     
   3    SELECTION: CHAIN 'B' AND (RESID 300 THROUGH 350 )                 
   3    ORIGIN FOR THE GROUP (A):  58.7228 -15.7666  -0.5783              
   3    T TENSOR                                                          
   3      T11:   0.0379 T22:   0.2052                                     
   3      T33:   0.2022 T12:  -0.0430                                     
   3      T13:  -0.1019 T23:  -0.1337                                     
   3    L TENSOR                                                          
   3      L11:   0.8069 L22:   0.4661                                     
   3      L33:   0.7877 L12:   0.6082                                     
   3      L13:   0.1359 L23:   0.1134                                     
   3    S TENSOR                                                          
   3      S11:  -0.0564 S12:   0.0170 S13:  -0.1891                       
   3      S21:  -0.1116 S22:  -0.0029 S23:   0.0496                       
   3      S31:   0.1280 S32:  -0.0266 S33:  -0.4675                       
   3   TLS GROUP : 16                                                     
   3    SELECTION: CHAIN 'B' AND (RESID 351 THROUGH 366 )                 
   3    ORIGIN FOR THE GROUP (A):  64.7688  -4.3171   0.8666              
   3    T TENSOR                                                          
   3      T11:   0.0816 T22:   0.2001                                     
   3      T33:   0.1921 T12:  -0.0117                                     
   3      T13:  -0.0221 T23:  -0.1125                                     
   3    L TENSOR                                                          
   3      L11:   0.8056 L22:   0.9558                                     
   3      L33:   0.6190 L12:   0.5933                                     
   3      L13:   0.2057 L23:   0.0090                                     
   3    S TENSOR                                                          
   3      S11:  -0.0928 S12:   0.0621 S13:  -0.1287                       
   3      S21:  -0.0345 S22:  -0.0243 S23:  -0.0947                       
   3      S31:  -0.0129 S32:  -0.0122 S33:  -0.3519                       
   3   TLS GROUP : 17                                                     
   3    SELECTION: CHAIN 'B' AND (RESID 367 THROUGH 382 )                 
   3    ORIGIN FOR THE GROUP (A):  63.9316  -5.7157  -7.0627              
   3    T TENSOR                                                          
   3      T11:   0.1813 T22:   0.1818                                     
   3      T33:   0.1373 T12:  -0.0894                                     
   3      T13:  -0.0204 T23:  -0.1570                                     
   3    L TENSOR                                                          
   3      L11:   1.1086 L22:   1.0239                                     
   3      L33:   0.8665 L12:   0.5996                                     
   3      L13:   0.4795 L23:   0.5385                                     
   3    S TENSOR                                                          
   3      S11:  -0.0703 S12:   0.1517 S13:  -0.1031                       
   3      S21:  -0.1161 S22:   0.0797 S23:  -0.1095                       
   3      S31:  -0.0200 S32:   0.0611 S33:  -0.1631                       
   3   TLS GROUP : 18                                                     
   3    SELECTION: CHAIN 'C' AND (RESID 26 THROUGH 103 )                  
   3    ORIGIN FOR THE GROUP (A):  46.6419  14.6935  28.4904              
   3    T TENSOR                                                          
   3      T11:   0.1756 T22:   0.1837                                     
   3      T33:   0.1740 T12:   0.0368                                     
   3      T13:  -0.0889 T23:   0.0305                                     
   3    L TENSOR                                                          
   3      L11:   1.1695 L22:   0.8555                                     
   3      L33:   0.8660 L12:   0.0025                                     
   3      L13:  -0.0882 L23:   0.0400                                     
   3    S TENSOR                                                          
   3      S11:   0.1746 S12:  -0.3767 S13:  -0.1552                       
   3      S21:   0.1917 S22:   0.0723 S23:  -0.1694                       
   3      S31:   0.3960 S32:   0.0688 S33:  -0.0111                       
   3   TLS GROUP : 19                                                     
   3    SELECTION: CHAIN 'C' AND (RESID 104 THROUGH 129 )                 
   3    ORIGIN FOR THE GROUP (A):  32.3911  45.3944  44.0289              
   3    T TENSOR                                                          
   3      T11:   0.6862 T22:   0.8825                                     
   3      T33:   0.7390 T12:   0.1827                                     
   3      T13:   0.1879 T23:  -0.3188                                     
   3    L TENSOR                                                          
   3      L11:   1.4464 L22:   0.5230                                     
   3      L33:   0.6204 L12:   0.3405                                     
   3      L13:  -0.6512 L23:  -0.0894                                     
   3    S TENSOR                                                          
   3      S11:   0.1615 S12:  -0.2587 S13:   0.4115                       
   3      S21:   0.0618 S22:   0.0962 S23:   0.0748                       
   3      S31:  -0.3074 S32:  -0.3174 S33:  -0.0788                       
   3   TLS GROUP : 20                                                     
   3    SELECTION: CHAIN 'C' AND (RESID 130 THROUGH 160 )                 
   3    ORIGIN FOR THE GROUP (A):  26.3334  37.9389  33.7723              
   3    T TENSOR                                                          
   3      T11:   0.3957 T22:   0.6836                                     
   3      T33:   0.5861 T12:   0.2557                                     
   3      T13:   0.0477 T23:  -0.1210                                     
   3    L TENSOR                                                          
   3      L11:   0.4422 L22:   0.1960                                     
   3      L33:   0.4007 L12:  -0.0377                                     
   3      L13:   0.0876 L23:  -0.2777                                     
   3    S TENSOR                                                          
   3      S11:   0.1138 S12:  -0.1887 S13:   0.4425                       
   3      S21:  -0.0026 S22:  -0.0404 S23:   0.1052                       
   3      S31:  -0.2256 S32:  -0.1964 S33:  -0.1322                       
   3   TLS GROUP : 21                                                     
   3    SELECTION: CHAIN 'C' AND (RESID 161 THROUGH 190 )                 
   3    ORIGIN FOR THE GROUP (A):  28.1590  36.2958  39.8921              
   3    T TENSOR                                                          
   3      T11:   0.2999 T22:   0.7064                                     
   3      T33:   0.5048 T12:   0.1696                                     
   3      T13:   0.0539 T23:  -0.2253                                     
   3    L TENSOR                                                          
   3      L11:   1.5019 L22:   1.2210                                     
   3      L33:   0.7303 L12:  -0.4433                                     
   3      L13:  -0.0659 L23:   0.1582                                     
   3    S TENSOR                                                          
   3      S11:   0.0506 S12:  -0.4181 S13:   0.3485                       
   3      S21:   0.1910 S22:   0.0082 S23:   0.1686                       
   3      S31:  -0.2078 S32:  -0.3399 S33:  -0.1496                       
   3   TLS GROUP : 22                                                     
   3    SELECTION: CHAIN 'C' AND (RESID 191 THROUGH 248 )                 
   3    ORIGIN FOR THE GROUP (A):  43.7624  30.5367  25.0250              
   3    T TENSOR                                                          
   3      T11:   0.1555 T22:   0.1433                                     
   3      T33:   0.2585 T12:   0.0029                                     
   3      T13:  -0.0158 T23:   0.0451                                     
   3    L TENSOR                                                          
   3      L11:   1.4447 L22:   0.6143                                     
   3      L33:   1.8381 L12:   0.3559                                     
   3      L13:   0.5471 L23:   0.6882                                     
   3    S TENSOR                                                          
   3      S11:   0.0069 S12:  -0.1539 S13:   0.4165                       
   3      S21:  -0.1790 S22:   0.0517 S23:   0.0761                       
   3      S31:  -0.4470 S32:  -0.0345 S33:   0.0461                       
   3   TLS GROUP : 23                                                     
   3    SELECTION: CHAIN 'C' AND (RESID 249 THROUGH 279 )                 
   3    ORIGIN FOR THE GROUP (A):  50.6180  25.0498  41.4085              
   3    T TENSOR                                                          
   3      T11:   0.1792 T22:   0.4096                                     
   3      T33:   0.1808 T12:  -0.0321                                     
   3      T13:  -0.0645 T23:  -0.0432                                     
   3    L TENSOR                                                          
   3      L11:   1.0869 L22:   1.2826                                     
   3      L33:   1.9406 L12:   0.1497                                     
   3      L13:   0.5106 L23:   0.0047                                     
   3    S TENSOR                                                          
   3      S11:   0.1275 S12:  -0.6574 S13:   0.1078                       
   3      S21:   0.4425 S22:  -0.1898 S23:  -0.1714                       
   3      S31:  -0.0568 S32:   0.0027 S33:  -0.1311                       
   3   TLS GROUP : 24                                                     
   3    SELECTION: CHAIN 'C' AND (RESID 280 THROUGH 350 )                 
   3    ORIGIN FOR THE GROUP (A):  33.1079  18.6733  43.5443              
   3    T TENSOR                                                          
   3      T11:   0.2232 T22:   0.8210                                     
   3      T33:   0.1755 T12:  -0.2109                                     
   3      T13:   0.0697 T23:   0.0585                                     
   3    L TENSOR                                                          
   3      L11:   0.3651 L22:   0.3098                                     
   3      L33:   0.4007 L12:   0.3380                                     
   3      L13:  -0.3885 L23:  -0.3539                                     
   3    S TENSOR                                                          
   3      S11:   0.2386 S12:  -0.8155 S13:   0.0063                       
   3      S21:   0.3505 S22:  -0.1083 S23:   0.2557                       
   3      S31:   0.0947 S32:  -0.5635 S33:  -0.0064                       
   3   TLS GROUP : 25                                                     
   3    SELECTION: CHAIN 'C' AND (RESID 351 THROUGH 382 )                 
   3    ORIGIN FOR THE GROUP (A):  40.5435  10.6187  34.9275              
   3    T TENSOR                                                          
   3      T11:   0.3313 T22:   0.3094                                     
   3      T33:   0.2274 T12:  -0.1260                                     
   3      T13:  -0.1065 T23:   0.1621                                     
   3    L TENSOR                                                          
   3      L11:   0.4814 L22:   0.8710                                     
   3      L33:   1.5342 L12:   0.4602                                     
   3      L13:  -0.4997 L23:   0.1799                                     
   3    S TENSOR                                                          
   3      S11:   0.1860 S12:  -0.4793 S13:  -0.3093                       
   3      S21:   0.3151 S22:  -0.0250 S23:  -0.0646                       
   3      S31:   0.3160 S32:  -0.3266 S33:  -0.1931                       
   3   TLS GROUP : 26                                                     
   3    SELECTION: CHAIN 'D' AND (RESID 26 THROUGH 58 )                   
   3    ORIGIN FOR THE GROUP (A):  55.3760 -34.0156  67.7427              
   3    T TENSOR                                                          
   3      T11:   0.2685 T22:   0.2773                                     
   3      T33:   0.2808 T12:  -0.0387                                     
   3      T13:  -0.0278 T23:  -0.0608                                     
   3    L TENSOR                                                          
   3      L11:   1.0348 L22:   2.0634                                     
   3      L33:   1.7700 L12:   0.1541                                     
   3      L13:  -0.1508 L23:  -0.2039                                     
   3    S TENSOR                                                          
   3      S11:  -0.1121 S12:   0.3447 S13:  -0.3568                       
   3      S21:  -0.0939 S22:   0.1467 S23:   0.2535                       
   3      S31:   0.4400 S32:  -0.3458 S33:  -0.1797                       
   3   TLS GROUP : 27                                                     
   3    SELECTION: CHAIN 'D' AND (RESID 59 THROUGH 216 )                  
   3    ORIGIN FOR THE GROUP (A):  64.0137  -5.7844  62.5508              
   3    T TENSOR                                                          
   3      T11:   0.2244 T22:   0.2611                                     
   3      T33:   0.1539 T12:   0.0200                                     
   3      T13:   0.0329 T23:   0.0515                                     
   3    L TENSOR                                                          
   3      L11:   0.7868 L22:   1.1112                                     
   3      L33:   0.9897 L12:   0.1456                                     
   3      L13:  -0.3151 L23:  -0.4749                                     
   3    S TENSOR                                                          
   3      S11:   0.0489 S12:   0.3285 S13:   0.1377                       
   3      S21:   0.0996 S22:   0.1499 S23:   0.1378                       
   3      S31:  -0.3385 S32:  -0.1136 S33:  -0.1317                       
   3   TLS GROUP : 28                                                     
   3    SELECTION: CHAIN 'D' AND (RESID 217 THROUGH 299 )                 
   3    ORIGIN FOR THE GROUP (A):  59.2819 -14.7646  62.4278              
   3    T TENSOR                                                          
   3      T11:   0.2233 T22:   0.2925                                     
   3      T33:   0.1297 T12:   0.0190                                     
   3      T13:  -0.0066 T23:   0.0194                                     
   3    L TENSOR                                                          
   3      L11:   0.7497 L22:   0.9290                                     
   3      L33:   1.0202 L12:   0.3296                                     
   3      L13:  -0.2598 L23:  -0.2708                                     
   3    S TENSOR                                                          
   3      S11:  -0.0290 S12:   0.4210 S13:  -0.0049                       
   3      S21:  -0.0162 S22:   0.1886 S23:   0.1964                       
   3      S31:  -0.2318 S32:  -0.1717 S33:  -0.0975                       
   3   TLS GROUP : 29                                                     
   3    SELECTION: CHAIN 'D' AND (RESID 300 THROUGH 350 )                 
   3    ORIGIN FOR THE GROUP (A):  68.6927 -21.7757  54.8884              
   3    T TENSOR                                                          
   3      T11:   0.2593 T22:   0.3612                                     
   3      T33:   0.1947 T12:  -0.0420                                     
   3      T13:   0.0390 T23:  -0.0897                                     
   3    L TENSOR                                                          
   3      L11:   0.5308 L22:   0.7083                                     
   3      L33:   0.5786 L12:   0.0978                                     
   3      L13:  -0.4697 L23:  -0.1883                                     
   3    S TENSOR                                                          
   3      S11:  -0.2039 S12:   0.4178 S13:  -0.1551                       
   3      S21:  -0.3000 S22:   0.1857 S23:  -0.1808                       
   3      S31:   0.1263 S32:  -0.0426 S33:  -0.1016                       
   3   TLS GROUP : 30                                                     
   3    SELECTION: CHAIN 'D' AND (RESID 351 THROUGH 382 )                 
   3    ORIGIN FOR THE GROUP (A):  60.7931 -28.9899  61.2047              
   3    T TENSOR                                                          
   3      T11:   0.2049 T22:   0.2731                                     
   3      T33:   0.1854 T12:  -0.0624                                     
   3      T13:  -0.0051 T23:  -0.0966                                     
   3    L TENSOR                                                          
   3      L11:   1.0596 L22:   1.5830                                     
   3      L33:   2.1478 L12:  -0.6613                                     
   3      L13:  -0.0608 L23:  -0.5649                                     
   3    S TENSOR                                                          
   3      S11:  -0.1249 S12:   0.4456 S13:  -0.2420                       
   3      S21:  -0.3232 S22:   0.1692 S23:   0.1006                       
   3      S31:   0.2526 S32:   0.0297 S33:  -0.1819                       
   3                                                                      
   3  NCS DETAILS                                                         
   3   NUMBER OF NCS GROUPS : NULL                                        
   3                                                                      
   3  OTHER REFINEMENT REMARKS: NULL                                      
   4                                                                      
   4 6WIF COMPLIES WITH FORMAT V. 3.30, 13-JUL-11                         
 100                                                                      
 100 THIS ENTRY HAS BEEN PROCESSED BY RCSB ON 10-APR-20.                  
 100 THE DEPOSITION ID IS D_1000248269.                                   
 200                                                                      
 200 EXPERIMENTAL DETAILS                                                 
 200  EXPERIMENT TYPE                : X-RAY DIFFRACTION                  
 200  DATE OF DATA COLLECTION        : 14-FEB-19                          
 200  TEMPERATURE           (KELVIN) : 100                                
 200  PH                             : 7.5                                
 200  NUMBER OF CRYSTALS USED        : 1                                  
 200                                                                      
 200  SYNCHROTRON              (Y/N) : Y                                  
 200  RADIATION SOURCE               : APS                                
 200  BEAMLINE                       : 19-BM                              
 200  X-RAY GENERATOR MODEL          : NULL                               
 200  MONOCHROMATIC OR LAUE    (M/L) : M                                  
 200  WAVELENGTH OR RANGE        (A) : 0.97935                            
 200  MONOCHROMATOR                  : NULL                               
 200  OPTICS                         : NULL                               
 200                                                                      
 200  DETECTOR TYPE                  : CCD                                
 200  DETECTOR MANUFACTURER          : ADSC QUANTUM 315R                  
 200  INTENSITY-INTEGRATION SOFTWARE : HKL-3000                           
 200  DATA SCALING SOFTWARE          : SCALEPACK                          
 200                                                                      
 200  NUMBER OF UNIQUE REFLECTIONS   : 76937                              
 200  RESOLUTION RANGE HIGH      (A) : 2.150                              
 200  RESOLUTION RANGE LOW       (A) : 50.000                             
 200  REJECTION CRITERIA  (SIGMA(I)) : NULL                               
 200                                                                      
 200 OVERALL.                                                             
 200  COMPLETENESS FOR RANGE     (%) : 99.2                               
 200  DATA REDUNDANCY                : 4.700                              
 200  R MERGE                    (I) : 0.05600                            
 200  R SYM                      (I) : NULL                               
 200  <I/SIGMA(I)> FOR THE DATA SET  : 10.5000                            
 200                                                                      
 200 IN THE HIGHEST RESOLUTION SHELL.                                     
 200  HIGHEST RESOLUTION SHELL, RANGE HIGH (A) : 2.15                     
 200  HIGHEST RESOLUTION SHELL, RANGE LOW  (A) : 2.19                     
 200  COMPLETENESS FOR SHELL     (%) : 89.0                               
 200  DATA REDUNDANCY IN SHELL       : 3.20                               
 200  R MERGE FOR SHELL          (I) : 0.57900                            
 200  R SYM FOR SHELL            (I) : NULL                               
 200  <I/SIGMA(I)> FOR SHELL         : NULL                               
 200                                                                      
 200 DIFFRACTION PROTOCOL: SINGLE WAVELENGTH                              
 200 METHOD USED TO DETERMINE THE STRUCTURE: MOLECULAR REPLACEMENT        
 200 SOFTWARE USED: HKL-3000                                              
 200 STARTING MODEL: 4QD4                                                 
 200                                                                      
 200 REMARK: NULL                                                         
 280                                                                      
 280 CRYSTAL                                                              
 280 SOLVENT CONTENT, VS   (%): 44.86                                     
 280 MATTHEWS COEFFICIENT, VM (ANGSTROMS**3/DA): 2.23                     
 280                                                                      
 280 CRYSTALLIZATION CONDITIONS: 0.2M SODIUM CHLORIDE, 0.1M HEPES, 25%    
 280  PEG3350, PH 7.5, VAPOR DIFFUSION, SITTING DROP, TEMPERATURE 289K    
 290                                                                      
 290 CRYSTALLOGRAPHIC SYMMETRY                                            
 290 SYMMETRY OPERATORS FOR SPACE GROUP: P 1 21 1                         
 290                                                                      
 290      SYMOP   SYMMETRY                                                
 290     NNNMMM   OPERATOR                                                
 290       1555   X,Y,Z                                                   
 290       2555   -X,Y+1/2,-Z                                             
 290                                                                      
 290     WHERE NNN -> OPERATOR NUMBER                                     
 290           MMM -> TRANSLATION VECTOR                                  
 290                                                                      
 290 CRYSTALLOGRAPHIC SYMMETRY TRANSFORMATIONS                            
 290 THE FOLLOWING TRANSFORMATIONS OPERATE ON THE ATOM/HETATM             
 290 RECORDS IN THIS ENTRY TO PRODUCE CRYSTALLOGRAPHICALLY                
 290 RELATED MOLECULES.                                                   
 290   SMTRY1   1  1.000000  0.000000  0.000000        0.00000            
 290   SMTRY2   1  0.000000  1.000000  0.000000        0.00000            
 290   SMTRY3   1  0.000000  0.000000  1.000000        0.00000            
 290   SMTRY1   2 -1.000000  0.000000  0.000000        0.00000            
 290   SMTRY2   2  0.000000  1.000000  0.000000       40.46250            
 290   SMTRY3   2  0.000000  0.000000 -1.000000        0.00000            
 290                                                                      
 290 REMARK: NULL                                                         
 300                                                                      
 300 BIOMOLECULE: 1, 2, 3, 4                                              
 300 SEE REMARK 350 FOR THE AUTHOR PROVIDED AND/OR PROGRAM                
 300 GENERATED ASSEMBLY INFORMATION FOR THE STRUCTURE IN                  
 300 THIS ENTRY. THE REMARK MAY ALSO PROVIDE INFORMATION ON               
 300 BURIED SURFACE AREA.                                                 
 350                                                                      
 350 COORDINATES FOR A COMPLETE MULTIMER REPRESENTING THE KNOWN           
 350 BIOLOGICALLY SIGNIFICANT OLIGOMERIZATION STATE OF THE                
 350 MOLECULE CAN BE GENERATED BY APPLYING BIOMT TRANSFORMATIONS          
 350 GIVEN BELOW.  BOTH NON-CRYSTALLOGRAPHIC AND                          
 350 CRYSTALLOGRAPHIC OPERATIONS ARE GIVEN.                               
 350                                                                      
 350 BIOMOLECULE: 1                                                       
 350 AUTHOR DETERMINED BIOLOGICAL UNIT: MONOMERIC                         
 350 SOFTWARE DETERMINED QUATERNARY STRUCTURE: MONOMERIC                  
 350 SOFTWARE USED: PISA                                                  
 350 APPLY THE FOLLOWING TO CHAINS: A                                     
 350   BIOMT1   1  1.000000  0.000000  0.000000        0.00000            
 350   BIOMT2   1  0.000000  1.000000  0.000000        0.00000            
 350   BIOMT3   1  0.000000  0.000000  1.000000        0.00000            
 350                                                                      
 350 BIOMOLECULE: 2                                                       
 350 AUTHOR DETERMINED BIOLOGICAL UNIT: MONOMERIC                         
 350 SOFTWARE DETERMINED QUATERNARY STRUCTURE: MONOMERIC                  
 350 SOFTWARE USED: PISA                                                  
 350 APPLY THE FOLLOWING TO CHAINS: B                                     
 350   BIOMT1   1  1.000000  0.000000  0.000000        0.00000            
 350   BIOMT2   1  0.000000  1.000000  0.000000        0.00000            
 350   BIOMT3   1  0.000000  0.000000  1.000000        0.00000            
 350                                                                      
 350 BIOMOLECULE: 3                                                       
 350 AUTHOR DETERMINED BIOLOGICAL UNIT: MONOMERIC                         
 350 SOFTWARE DETERMINED QUATERNARY STRUCTURE: MONOMERIC                  
 350 SOFTWARE USED: PISA                                                  
 350 APPLY THE FOLLOWING TO CHAINS: C                                     
 350   BIOMT1   1  1.000000  0.000000  0.000000        0.00000            
 350   BIOMT2   1  0.000000  1.000000  0.000000        0.00000            
 350   BIOMT3   1  0.000000  0.000000  1.000000        0.00000            
 350                                                                      
 350 BIOMOLECULE: 4                                                       
 350 AUTHOR DETERMINED BIOLOGICAL UNIT: MONOMERIC                         
 350 SOFTWARE DETERMINED QUATERNARY STRUCTURE: MONOMERIC                  
 350 SOFTWARE USED: PISA                                                  
 350 APPLY THE FOLLOWING TO CHAINS: D                                     
 350   BIOMT1   1  1.000000  0.000000  0.000000        0.00000            
 350   BIOMT2   1  0.000000  1.000000  0.000000        0.00000            
 350   BIOMT3   1  0.000000  0.000000  1.000000        0.00000            
 465                                                                      
 465 MISSING RESIDUES                                                     
 465 THE FOLLOWING RESIDUES WERE NOT LOCATED IN THE                       
 465 EXPERIMENT. (M=MODEL NUMBER; RES=RESIDUE NAME; C=CHAIN               
 465 IDENTIFIER; SSSEQ=SEQUENCE NUMBER; I=INSERTION CODE.)                
 465                                                                      
 465   M RES C SSSEQI                                                     
 465     GLY A    24                                                      
 465     ASN A    25                                                      
 465     THR A    26                                                      
 465     PRO A    27                                                      
 465     LYS A   383                                                      
 465     LYS B   383                                                      
 465     GLY C    24                                                      
 465     ASN C    25                                                      
 465     LYS C   383                                                      
 465     GLY D    24                                                      
 465     ASN D    25                                                      
 465     LYS D   383                                                      
 470                                                                      
 470 MISSING ATOM                                                         
 470 THE FOLLOWING RESIDUES HAVE MISSING ATOMS (M=MODEL NUMBER;           
 470 RES=RESIDUE NAME; C=CHAIN IDENTIFIER; SSEQ=SEQUENCE NUMBER;          
 470 I=INSERTION CODE):                                                   
 470   M RES CSSEQI  ATOMS                                                
 470     LYS A  28    CG   CD   CE   NZ                                   
 470     GLU C 148    CG   CD   OE1  OE2                                  
 470     GLN C 153    CG   CD   OE1  NE2                                  
 470     GLU C 328    CG   CD   OE1  OE2                                  
 470     LYS C 382    CG   CD   CE   NZ                                   
 470     THR D  26    OG1  CG2                                            
 500                                                                      
 500 GEOMETRY AND STEREOCHEMISTRY                                         
 500 SUBTOPIC: CLOSE CONTACTS IN SAME ASYMMETRIC UNIT                     
 500                                                                      
 500 THE FOLLOWING ATOMS ARE IN CLOSE CONTACT.                            
 500                                                                      
 500  ATM1  RES C  SSEQI   ATM2  RES C  SSEQI           DISTANCE          
 500   N    ASN C   237     O1S  EPE C   403              1.30            
 500   CD   ARG C   364     C6   EPE C   404              1.49            
 500   OG   SER D    88     O3   U2Y D   401              1.76            
 500   OG   SER C    88     O3   U2Y C   401              1.85            
 500   OG   SER A    88     O3   U2Y A   401              1.85            
 500   OG   SER C    88     O2   U2Y C   401              1.87            
 500   OG   SER B    88     O2   U2Y B   401              1.94            
 500   NE   ARG C   364     C6   EPE C   404              1.95            
 500   OG   SER D    88     O2   U2Y D   401              1.98            
 500   CA   ASN C   237     O1S  EPE C   403              2.04            
 500   OG   SER A    88     O2   U2Y A   401              2.05            
 500   OG   SER B    88     O3   U2Y B   401              2.08            
 500   OE2  GLU B   297     O    HOH B   501              2.17            
 500   O    HOH A   567     O    HOH A   662              2.19            
 500   O    TYR A    66     O    HOH A   501              2.19            
 500   OE1  GLU B   148     O    HOH B   502              2.19            
 500                                                                      
 500 REMARK: NULL                                                         
 500                                                                      
 500 GEOMETRY AND STEREOCHEMISTRY                                         
 500 SUBTOPIC: TORSION ANGLES                                             
 500                                                                      
 500 TORSION ANGLES OUTSIDE THE EXPECTED RAMACHANDRAN REGIONS:            
 500 (M=MODEL NUMBER; RES=RESIDUE NAME; C=CHAIN IDENTIFIER;               
 500 SSEQ=SEQUENCE NUMBER; I=INSERTION CODE).                             
 500                                                                      
 500 STANDARD TABLE:                                                      
 500 FORMAT:(10X,I3,1X,A3,1X,A1,I4,A1,4X,F7.2,3X,F7.2)                    
 500                                                                      
 500 EXPECTED VALUES: GJ KLEYWEGT AND TA JONES (1996). PHI/PSI-           
 500 CHOLOGY: RAMACHANDRAN REVISITED. STRUCTURE 4, 1395 - 1400            
 500                                                                      
 500  M RES CSSEQI        PSI       PHI                                   
 500    ASN A 122       -1.59     69.90                                   
 500    ASN A 140       60.51   -156.69                                   
 500    GLN A 150      -55.63   -135.01                                   
 500    LYS A 165      -83.19   -137.43                                   
 500    THR A 201      -57.35   -124.57                                   
 500    ASN A 228     -168.33    -77.69                                   
 500    TYR A 246       29.81   -168.26                                   
 500    ASN A 287     -122.04     56.51                                   
 500    SER A 326      -62.18    -93.45                                   
 500    ASN A 362       32.75    -91.65                                   
 500    ILE A 381       42.52   -106.10                                   
 500    ASN B  25       69.49   -106.48                                   
 500    ASN B 140       61.76   -156.33                                   
 500    GLN B 150      -52.30   -132.58                                   
 500    LYS B 165      -79.35   -128.29                                   
 500    TYR B 246       25.10   -166.14                                   
 500    ASN B 287     -116.16     60.21                                   
 500    ASN B 362       32.44    -95.18                                   
 500    THR C 137       58.61   -112.60                                   
 500    ASN C 140       62.99   -158.17                                   
 500    GLN C 150      -62.36   -131.87                                   
 500    LYS C 165      -76.47   -134.94                                   
 500    THR C 201      -61.61   -120.69                                   
 500    TYR C 246       33.28   -162.30                                   
 500    ASN C 287     -123.60     57.43                                   
 500    SER C 326      -62.30    -94.83                                   
 500    THR C 340     -166.14   -102.60                                   
 500    ASN C 362       34.59    -89.47                                   
 500    PRO D  27      -70.36    -87.96                                   
 500    ASN D 140       54.64   -156.87                                   
 500    GLN D 150      -63.96   -130.10                                   
 500    LYS D 165      -72.25   -130.98                                   
 500    TYR D 246       31.57   -163.72                                   
 500    ASN D 287     -127.42     58.46                                   
 500    ASN D 362       32.30    -92.04                                   
 500                                                                      
 500 REMARK: NULL                                                         
 525                                                                      
 525 SOLVENT                                                              
 525                                                                      
 525 THE SOLVENT MOLECULES HAVE CHAIN IDENTIFIERS THAT                    
 525 INDICATE THE POLYMER CHAIN WITH WHICH THEY ARE MOST                  
 525 CLOSELY ASSOCIATED. THE REMARK LISTS ALL THE SOLVENT                 
 525 MOLECULES WHICH ARE MORE THAN 5A AWAY FROM THE                       
 525 NEAREST POLYMER CHAIN (M = MODEL NUMBER;                             
 525 RES=RESIDUE NAME; C=CHAIN IDENTIFIER; SSEQ=SEQUENCE                  
 525 NUMBER; I=INSERTION CODE):                                           
 525                                                                      
 525  M RES CSSEQI                                                        
 525    HOH B 694        DISTANCE =  5.88 ANGSTROMS                       
 800                                                                      
 800 SITE                                                                 
 800 SITE_IDENTIFIER: AC1                                                 
 800 EVIDENCE_CODE: SOFTWARE                                              
 800 SITE_DESCRIPTION: binding site for residue U2Y A 401                 
 800                                                                      
 800 SITE_IDENTIFIER: AC2                                                 
 800 EVIDENCE_CODE: SOFTWARE                                              
 800 SITE_DESCRIPTION: binding site for residue CL A 402                  
 800                                                                      
 800 SITE_IDENTIFIER: AC3                                                 
 800 EVIDENCE_CODE: SOFTWARE                                              
 800 SITE_DESCRIPTION: binding site for residue EDO B 402                 
 800                                                                      
 800 SITE_IDENTIFIER: AC4                                                 
 800 EVIDENCE_CODE: SOFTWARE                                              
 800 SITE_DESCRIPTION: binding site for residue EDO B 403                 
 800                                                                      
 800 SITE_IDENTIFIER: AC5                                                 
 800 EVIDENCE_CODE: SOFTWARE                                              
 800 SITE_DESCRIPTION: binding site for residue EPE B 404                 
 800                                                                      
 800 SITE_IDENTIFIER: AC6                                                 
 800 EVIDENCE_CODE: SOFTWARE                                              
 800 SITE_DESCRIPTION: binding site for residue EDO B 405                 
 800                                                                      
 800 SITE_IDENTIFIER: AC7                                                 
 800 EVIDENCE_CODE: SOFTWARE                                              
 800 SITE_DESCRIPTION: binding site for residue EDO C 402                 
 800                                                                      
 800 SITE_IDENTIFIER: AC8                                                 
 800 EVIDENCE_CODE: SOFTWARE                                              
 800 SITE_DESCRIPTION: binding site for residue EDO C 405                 
 800                                                                      
 800 SITE_IDENTIFIER: AC9                                                 
 800 EVIDENCE_CODE: SOFTWARE                                              
 800 SITE_DESCRIPTION: binding site for residue EDO C 406                 
 800                                                                      
 800 SITE_IDENTIFIER: AD1                                                 
 800 EVIDENCE_CODE: SOFTWARE                                              
 800 SITE_DESCRIPTION: binding site for residue CL C 407                  
 800                                                                      
 800 SITE_IDENTIFIER: AD2                                                 
 800 EVIDENCE_CODE: SOFTWARE                                              
 800 SITE_DESCRIPTION: binding site for residue CL C 408                  
 800                                                                      
 800 SITE_IDENTIFIER: AD3                                                 
 800 EVIDENCE_CODE: SOFTWARE                                              
 800 SITE_DESCRIPTION: binding site for residue EDO D 402                 
 800                                                                      
 800 SITE_IDENTIFIER: AD4                                                 
 800 EVIDENCE_CODE: SOFTWARE                                              
 800 SITE_DESCRIPTION: binding site for residue EDO D 403                 
 800                                                                      
 800 SITE_IDENTIFIER: AD5                                                 
 800 EVIDENCE_CODE: SOFTWARE                                              
 800 SITE_DESCRIPTION: binding site for residue EPE D 404                 
 800                                                                      
 800 SITE_IDENTIFIER: AD6                                                 
 800 EVIDENCE_CODE: SOFTWARE                                              
 800 SITE_DESCRIPTION: binding site for residue EDO D 405                 
 800                                                                      
 800 SITE_IDENTIFIER: AD7                                                 
 800 EVIDENCE_CODE: SOFTWARE                                              
 800 SITE_DESCRIPTION: binding site for residue EDO D 406                 
 800                                                                      
 800 SITE_IDENTIFIER: AD8                                                 
 800 EVIDENCE_CODE: SOFTWARE                                              
 800 SITE_DESCRIPTION: binding site for residue EDO D 407                 
 800                                                                      
 800 SITE_IDENTIFIER: AD9                                                 
 800 EVIDENCE_CODE: SOFTWARE                                              
 800 SITE_DESCRIPTION: binding site for Di-peptide U2Y B 401 and SER B    
 800  88                                                                  
 800                                                                      
 800 SITE_IDENTIFIER: AE1                                                 
 800 EVIDENCE_CODE: SOFTWARE                                              
 800 SITE_DESCRIPTION: binding site for Di-peptide U2Y C 401 and SER C    
 800  88                                                                  
 800                                                                      
 800 SITE_IDENTIFIER: AE2                                                 
 800 EVIDENCE_CODE: SOFTWARE                                              
 800 SITE_DESCRIPTION: binding site for Di-peptide EPE C 403 and ASN C    
 800  237                                                                 
 800                                                                      
 800 SITE_IDENTIFIER: AE3                                                 
 800 EVIDENCE_CODE: SOFTWARE                                              
 800 SITE_DESCRIPTION: binding site for Di-peptide EPE C 404 and ARG C    
 800  364                                                                 
 800                                                                      
 800 SITE_IDENTIFIER: AE4                                                 
 800 EVIDENCE_CODE: SOFTWARE                                              
 800 SITE_DESCRIPTION: binding site for Di-peptide U2Y D 401 and SER D    
 800  88                                                                  
 900                                                                      
 900 RELATED ENTRIES                                                      
 900 RELATED ID: CSGID-IDP97236   RELATED DB: TARGETTRACK                 

>  <DBREF>
 6WIF A   24   383  UNP    D6NSN2   D6NSN2_ACIBA    24    383             
 6WIF B   24   383  UNP    D6NSN2   D6NSN2_ACIBA    24    383             
 6WIF C   24   383  UNP    D6NSN2   D6NSN2_ACIBA    24    383             
 6WIF D   24   383  UNP    D6NSN2   D6NSN2_ACIBA    24    383             

>  <SEQRES>
   1 A  360  GLY ASN THR PRO LYS ASP GLN GLU ILE LYS LYS LEU VAL          
   2 A  360  ASP GLN ASN PHE LYS PRO LEU LEU GLU LYS TYR ASP VAL          
   3 A  360  PRO GLY MET ALA VAL GLY VAL ILE GLN ASN ASN LYS LYS          
   4 A  360  TYR GLU MET TYR TYR GLY LEU GLN SER VAL GLN ASP LYS          
   5 A  360  LYS ALA VAL ASN SER SER THR ILE PHE GLU LEU GLY SER          
   6 A  360  VAL SER LYS LEU PHE THR ALA THR ALA GLY GLY TYR ALA          
   7 A  360  LYS ASN LYS GLY LYS ILE SER PHE ASP ASP THR PRO GLY          
   8 A  360  LYS TYR TRP LYS VAL LEU LYS ASN THR PRO ILE ASP GLN          
   9 A  360  VAL ASN LEU LEU GLN LEU ALA THR TYR THR SER GLY ASN          
  10 A  360  LEU ALA LEU GLN PHE PRO ASP GLU VAL GLN THR ASP GLN          
  11 A  360  GLN VAL LEU THR PHE PHE LYS ASP TRP LYS PRO LYS ASN          
  12 A  360  PRO ILE GLY GLU TYR ARG GLN TYR SER ASN PRO SER ILE          
  13 A  360  GLY LEU PHE GLY LYS VAL VAL ALA LEU SER MET ASN LYS          
  14 A  360  PRO PHE ASP GLN VAL LEU GLU LYS THR ILE PHE PRO ALA          
  15 A  360  LEU GLY LEU LYS HIS SER TYR VAL ASN VAL PRO LYS THR          
  16 A  360  GLN MET GLN ASN TYR ALA PHE GLY TYR ASN GLN GLU ASN          
  17 A  360  GLN PRO ILE ARG VAL ASN PRO GLY PRO LEU ASP ALA PRO          
  18 A  360  ALA TYR GLY VAL LYS SER THR LEU PRO ASP MET LEU SER          
  19 A  360  PHE ILE HIS ALA ASN LEU ASN PRO GLN LYS TYR PRO ALA          
  20 A  360  ASP ILE GLN ARG ALA ILE ASN GLU THR HIS GLN GLY PHE          
  21 A  360  TYR GLN VAL ASN THR MET TYR GLN ALA LEU GLY TRP GLU          
  22 A  360  GLU PHE SER TYR PRO ALA THR LEU GLN THR LEU LEU ASP          
  23 A  360  SER ASN SER GLU GLN ILE VAL MET LYS PRO ASN LYS VAL          
  24 A  360  THR ALA ILE SER LYS GLU PRO SER VAL LYS MET TYR HIS          
  25 A  360  LYS THR GLY SER THR ASN GLY PHE GLY THR TYR VAL VAL          
  26 A  360  PHE ILE PRO LYS GLU ASN ILE GLY LEU VAL MET LEU THR          
  27 A  360  ASN LYS ARG ILE PRO ASN GLU GLU ARG ILE LYS ALA ALA          
  28 A  360  TYR ALA VAL LEU ASN ALA ILE LYS LYS                          
   1 B  360  GLY ASN THR PRO LYS ASP GLN GLU ILE LYS LYS LEU VAL          
   2 B  360  ASP GLN ASN PHE LYS PRO LEU LEU GLU LYS TYR ASP VAL          
   3 B  360  PRO GLY MET ALA VAL GLY VAL ILE GLN ASN ASN LYS LYS          
   4 B  360  TYR GLU MET TYR TYR GLY LEU GLN SER VAL GLN ASP LYS          
   5 B  360  LYS ALA VAL ASN SER SER THR ILE PHE GLU LEU GLY SER          
   6 B  360  VAL SER LYS LEU PHE THR ALA THR ALA GLY GLY TYR ALA          
   7 B  360  LYS ASN LYS GLY LYS ILE SER PHE ASP ASP THR PRO GLY          
   8 B  360  LYS TYR TRP LYS VAL LEU LYS ASN THR PRO ILE ASP GLN          
   9 B  360  VAL ASN LEU LEU GLN LEU ALA THR TYR THR SER GLY ASN          
  10 B  360  LEU ALA LEU GLN PHE PRO ASP GLU VAL GLN THR ASP GLN          
  11 B  360  GLN VAL LEU THR PHE PHE LYS ASP TRP LYS PRO LYS ASN          
  12 B  360  PRO ILE GLY GLU TYR ARG GLN TYR SER ASN PRO SER ILE          
  13 B  360  GLY LEU PHE GLY LYS VAL VAL ALA LEU SER MET ASN LYS          
  14 B  360  PRO PHE ASP GLN VAL LEU GLU LYS THR ILE PHE PRO ALA          
  15 B  360  LEU GLY LEU LYS HIS SER TYR VAL ASN VAL PRO LYS THR          
  16 B  360  GLN MET GLN ASN TYR ALA PHE GLY TYR ASN GLN GLU ASN          
  17 B  360  GLN PRO ILE ARG VAL ASN PRO GLY PRO LEU ASP ALA PRO          
  18 B  360  ALA TYR GLY VAL LYS SER THR LEU PRO ASP MET LEU SER          
  19 B  360  PHE ILE HIS ALA ASN LEU ASN PRO GLN LYS TYR PRO ALA          
  20 B  360  ASP ILE GLN ARG ALA ILE ASN GLU THR HIS GLN GLY PHE          
  21 B  360  TYR GLN VAL ASN THR MET TYR GLN ALA LEU GLY TRP GLU          
  22 B  360  GLU PHE SER TYR PRO ALA THR LEU GLN THR LEU LEU ASP          
  23 B  360  SER ASN SER GLU GLN ILE VAL MET LYS PRO ASN LYS VAL          
  24 B  360  THR ALA ILE SER LYS GLU PRO SER VAL LYS MET TYR HIS          
  25 B  360  LYS THR GLY SER THR ASN GLY PHE GLY THR TYR VAL VAL          
  26 B  360  PHE ILE PRO LYS GLU ASN ILE GLY LEU VAL MET LEU THR          
  27 B  360  ASN LYS ARG ILE PRO ASN GLU GLU ARG ILE LYS ALA ALA          
  28 B  360  TYR ALA VAL LEU ASN ALA ILE LYS LYS                          
   1 C  360  GLY ASN THR PRO LYS ASP GLN GLU ILE LYS LYS LEU VAL          
   2 C  360  ASP GLN ASN PHE LYS PRO LEU LEU GLU LYS TYR ASP VAL          
   3 C  360  PRO GLY MET ALA VAL GLY VAL ILE GLN ASN ASN LYS LYS          
   4 C  360  TYR GLU MET TYR TYR GLY LEU GLN SER VAL GLN ASP LYS          
   5 C  360  LYS ALA VAL ASN SER SER THR ILE PHE GLU LEU GLY SER          
   6 C  360  VAL SER LYS LEU PHE THR ALA THR ALA GLY GLY TYR ALA          
   7 C  360  LYS ASN LYS GLY LYS ILE SER PHE ASP ASP THR PRO GLY          
   8 C  360  LYS TYR TRP LYS VAL LEU LYS ASN THR PRO ILE ASP GLN          
   9 C  360  VAL ASN LEU LEU GLN LEU ALA THR TYR THR SER GLY ASN          
  10 C  360  LEU ALA LEU GLN PHE PRO ASP GLU VAL GLN THR ASP GLN          
  11 C  360  GLN VAL LEU THR PHE PHE LYS ASP TRP LYS PRO LYS ASN          
  12 C  360  PRO ILE GLY GLU TYR ARG GLN TYR SER ASN PRO SER ILE          
  13 C  360  GLY LEU PHE GLY LYS VAL VAL ALA LEU SER MET ASN LYS          
  14 C  360  PRO PHE ASP GLN VAL LEU GLU LYS THR ILE PHE PRO ALA          
  15 C  360  LEU GLY LEU LYS HIS SER TYR VAL ASN VAL PRO LYS THR          
  16 C  360  GLN MET GLN ASN TYR ALA PHE GLY TYR ASN GLN GLU ASN          
  17 C  360  GLN PRO ILE ARG VAL ASN PRO GLY PRO LEU ASP ALA PRO          
  18 C  360  ALA TYR GLY VAL LYS SER THR LEU PRO ASP MET LEU SER          
  19 C  360  PHE ILE HIS ALA ASN LEU ASN PRO GLN LYS TYR PRO ALA          
  20 C  360  ASP ILE GLN ARG ALA ILE ASN GLU THR HIS GLN GLY PHE          
  21 C  360  TYR GLN VAL ASN THR MET TYR GLN ALA LEU GLY TRP GLU          
  22 C  360  GLU PHE SER TYR PRO ALA THR LEU GLN THR LEU LEU ASP          
  23 C  360  SER ASN SER GLU GLN ILE VAL MET LYS PRO ASN LYS VAL          
  24 C  360  THR ALA ILE SER LYS GLU PRO SER VAL LYS MET TYR HIS          
  25 C  360  LYS THR GLY SER THR ASN GLY PHE GLY THR TYR VAL VAL          
  26 C  360  PHE ILE PRO LYS GLU ASN ILE GLY LEU VAL MET LEU THR          
  27 C  360  ASN LYS ARG ILE PRO ASN GLU GLU ARG ILE LYS ALA ALA          
  28 C  360  TYR ALA VAL LEU ASN ALA ILE LYS LYS                          
   1 D  360  GLY ASN THR PRO LYS ASP GLN GLU ILE LYS LYS LEU VAL          
   2 D  360  ASP GLN ASN PHE LYS PRO LEU LEU GLU LYS TYR ASP VAL          
   3 D  360  PRO GLY MET ALA VAL GLY VAL ILE GLN ASN ASN LYS LYS          
   4 D  360  TYR GLU MET TYR TYR GLY LEU GLN SER VAL GLN ASP LYS          
   5 D  360  LYS ALA VAL ASN SER SER THR ILE PHE GLU LEU GLY SER          
   6 D  360  VAL SER LYS LEU PHE THR ALA THR ALA GLY GLY TYR ALA          
   7 D  360  LYS ASN LYS GLY LYS ILE SER PHE ASP ASP THR PRO GLY          
   8 D  360  LYS TYR TRP LYS VAL LEU LYS ASN THR PRO ILE ASP GLN          
   9 D  360  VAL ASN LEU LEU GLN LEU ALA THR TYR THR SER GLY ASN          
  10 D  360  LEU ALA LEU GLN PHE PRO ASP GLU VAL GLN THR ASP GLN          
  11 D  360  GLN VAL LEU THR PHE PHE LYS ASP TRP LYS PRO LYS ASN          
  12 D  360  PRO ILE GLY GLU TYR ARG GLN TYR SER ASN PRO SER ILE          
  13 D  360  GLY LEU PHE GLY LYS VAL VAL ALA LEU SER MET ASN LYS          
  14 D  360  PRO PHE ASP GLN VAL LEU GLU LYS THR ILE PHE PRO ALA          
  15 D  360  LEU GLY LEU LYS HIS SER TYR VAL ASN VAL PRO LYS THR          
  16 D  360  GLN MET GLN ASN TYR ALA PHE GLY TYR ASN GLN GLU ASN          
  17 D  360  GLN PRO ILE ARG VAL ASN PRO GLY PRO LEU ASP ALA PRO          
  18 D  360  ALA TYR GLY VAL LYS SER THR LEU PRO ASP MET LEU SER          
  19 D  360  PHE ILE HIS ALA ASN LEU ASN PRO GLN LYS TYR PRO ALA          
  20 D  360  ASP ILE GLN ARG ALA ILE ASN GLU THR HIS GLN GLY PHE          
  21 D  360  TYR GLN VAL ASN THR MET TYR GLN ALA LEU GLY TRP GLU          
  22 D  360  GLU PHE SER TYR PRO ALA THR LEU GLN THR LEU LEU ASP          
  23 D  360  SER ASN SER GLU GLN ILE VAL MET LYS PRO ASN LYS VAL          
  24 D  360  THR ALA ILE SER LYS GLU PRO SER VAL LYS MET TYR HIS          
  25 D  360  LYS THR GLY SER THR ASN GLY PHE GLY THR TYR VAL VAL          
  26 D  360  PHE ILE PRO LYS GLU ASN ILE GLY LEU VAL MET LEU THR          
  27 D  360  ASN LYS ARG ILE PRO ASN GLU GLU ARG ILE LYS ALA ALA          
  28 D  360  TYR ALA VAL LEU ASN ALA ILE LYS LYS                          

>  <HET>
 U2Y  A 401      15                                                       
  CL  A 402       1                                                       
 U2Y  B 401      15                                                       
 EDO  B 402       4                                                       
 EDO  B 403       4                                                       
 EPE  B 404      15                                                       
 EDO  B 405       4                                                       
 U2Y  C 401      15                                                       
 EDO  C 402       4                                                       
 EPE  C 403      15                                                       
 EPE  C 404      15                                                       
 EDO  C 405       4                                                       
 EDO  C 406       4                                                       
  CL  C 407       1                                                       
  CL  C 408       1                                                       
 U2Y  D 401      15                                                       
 EDO  D 402       4                                                       
 EDO  D 403       4                                                       
 EPE  D 404      15                                                       
 EDO  D 405       4                                                       
 EDO  D 406       4                                                       
 EDO  D 407       4                                                       

>  <HETNAM>
     U2Y {4-[ETHYL(METHYL)CARBAMOYL]PHENYL}BORONIC ACID                   
      CL CHLORIDE ION                                                     
     EDO 1,2-ETHANEDIOL                                                   
     EPE 4-(2-HYDROXYETHYL)-1-PIPERAZINE ETHANESULFONIC ACID              

>  <HETSYN>
     EDO ETHYLENE GLYCOL                                                  
     EPE HEPES                                                            

>  <FORMUL>
   5  U2Y    4(C10 H14 B N O3)                                            
   6   CL    3(CL 1-)                                                     
   8  EDO    11(C2 H6 O2)                                                 
  10  EPE    4(C8 H18 N2 O4 S)                                            
  27  HOH   *666(H2 O)                                                    

>  <HELIX>
   1 AA1 GLN A   30  PHE A   40  1                                  11    
   2 AA2 PHE A   40  TYR A   47  1                                   8    
   3 AA3 VAL A   89  LYS A  104  1                                  16    
   4 AA4 THR A  112  TYR A  116  5                                   5    
   5 AA5 TRP A  117  LYS A  121  5                                   5    
   6 AA6 THR A  123  VAL A  128  5                                   6    
   7 AA7 ASN A  129  THR A  135  1                                   7    
   8 AA8 THR A  151  ASP A  161  1                                  11    
   9 AA9 SER A  175  MET A  190  1                                  16    
  10 AB1 PRO A  193  THR A  201  1                                   9    
  11 AB2 THR A  201  LEU A  206  1                                   6    
  12 AB3 PRO A  216  MET A  220  5                                   5    
  13 AB4 LEU A  241  GLY A  247  1                                   7    
  14 AB5 THR A  251  ASN A  264  1                                  14    
  15 AB6 PRO A  265  TYR A  268  5                                   4    
  16 AB7 PRO A  269  THR A  279  1                                  11    
  17 AB8 THR A  303  ASN A  311  1                                   9    
  18 AB9 SER A  312  MET A  317  1                                   6    
  19 AC1 PRO A  366  ILE A  381  1                                  16    
  20 AC2 PRO B   27  PHE B   40  1                                  14    
  21 AC3 LYS B   41  ASP B   48  1                                   8    
  22 AC4 VAL B   89  LYS B  104  1                                  16    
  23 AC5 THR B  112  TYR B  116  5                                   5    
  24 AC6 TRP B  117  LYS B  121  5                                   5    
  25 AC7 THR B  123  VAL B  128  5                                   6    
  26 AC8 ASN B  129  THR B  135  1                                   7    
  27 AC9 THR B  151  ASP B  161  1                                  11    
  28 AD1 SER B  175  MET B  190  1                                  16    
  29 AD2 PRO B  193  THR B  201  1                                   9    
  30 AD3 THR B  201  LEU B  206  1                                   6    
  31 AD4 PRO B  216  TYR B  223  5                                   8    
  32 AD5 LEU B  241  GLY B  247  1                                   7    
  33 AD6 THR B  251  ASN B  264  1                                  14    
  34 AD7 PRO B  265  TYR B  268  5                                   4    
  35 AD8 PRO B  269  GLU B  278  1                                  10    
  36 AD9 THR B  303  ASN B  311  1                                   9    
  37 AE1 SER B  312  LYS B  318  1                                   7    
  38 AE2 PRO B  366  ILE B  381  1                                  16    
  39 AE3 PRO C   27  PHE C   40  1                                  14    
  40 AE4 PHE C   40  TYR C   47  1                                   8    
  41 AE5 VAL C   89  LYS C  104  1                                  16    
  42 AE6 THR C  112  TYR C  116  5                                   5    
  43 AE7 TRP C  117  LYS C  121  5                                   5    
  44 AE8 THR C  123  VAL C  128  5                                   6    
  45 AE9 ASN C  129  THR C  135  1                                   7    
  46 AF1 THR C  151  ASP C  161  1                                  11    
  47 AF2 SER C  175  MET C  190  1                                  16    
  48 AF3 PRO C  193  THR C  201  1                                   9    
  49 AF4 THR C  201  LEU C  206  1                                   6    
  50 AF5 PRO C  216  TYR C  223  5                                   8    
  51 AF6 ASP C  242  GLY C  247  1                                   6    
  52 AF7 THR C  251  ASN C  264  1                                  14    
  53 AF8 PRO C  265  TYR C  268  5                                   4    
  54 AF9 PRO C  269  GLU C  278  1                                  10    
  55 AG1 THR C  303  SER C  310  1                                   8    
  56 AG2 SER C  312  LYS C  318  1                                   7    
  57 AG3 PRO C  366  ILE C  381  1                                  16    
  58 AG4 LYS D   28  PHE D   40  1                                  13    
  59 AG5 PHE D   40  ASP D   48  1                                   9    
  60 AG6 VAL D   89  LYS D  104  1                                  16    
  61 AG7 THR D  112  TYR D  116  5                                   5    
  62 AG8 TRP D  117  LYS D  121  5                                   5    
  63 AG9 THR D  123  VAL D  128  5                                   6    
  64 AH1 ASN D  129  THR D  135  1                                   7    
  65 AH2 THR D  151  ASP D  161  1                                  11    
  66 AH3 SER D  175  MET D  190  1                                  16    
  67 AH4 PRO D  193  THR D  201  1                                   9    
  68 AH5 THR D  201  LEU D  206  1                                   6    
  69 AH6 PRO D  216  TYR D  223  5                                   8    
  70 AH7 ASP D  242  GLY D  247  1                                   6    
  71 AH8 THR D  251  ASN D  264  1                                  14    
  72 AH9 PRO D  265  TYR D  268  5                                   4    
  73 AI1 PRO D  269  GLU D  278  1                                  10    
  74 AI2 THR D  303  SER D  310  1                                   8    
  75 AI3 SER D  312  LYS D  318  1                                   7    
  76 AI4 PRO D  366  LYS D  382  1                                  17    

>  <SHEET>
   1 AA1 9 LYS A  76  ALA A  77  0                                        
   2 AA1 9 LYS A  61  SER A  71 -1  N  GLN A  70   O  LYS A  76           
   3 AA1 9 GLY A  51  GLN A  58 -1  N  MET A  52   O  TYR A  67           
   4 AA1 9 ILE A 355  THR A 361 -1  O  LEU A 360   N  ALA A  53           
   5 AA1 9 PHE A 343  ILE A 350 -1  N  ILE A 350   O  ILE A 355           
   6 AA1 9 LYS A 332  THR A 340 -1  N  GLY A 338   O  THR A 345           
   7 AA1 9 GLU A 296  SER A 299 -1  N  PHE A 298   O  MET A 333           
   8 AA1 9 MET A 289  GLN A 291 -1  N  TYR A 290   O  GLU A 297           
   9 AA1 9 TYR A 284  VAL A 286 -1  N  VAL A 286   O  MET A 289           
   1 AA2 2 PHE A  84  GLU A  85  0                                        
   2 AA2 2 LYS A 249  SER A 250 -1  O  SER A 250   N  PHE A  84           
   1 AA3 2 TYR A 171  ARG A 172  0                                        
   2 AA3 2 ASN A 320  LYS A 321 -1  O  ASN A 320   N  ARG A 172           
   1 AA4 2 GLY A 226  TYR A 227  0                                        
   2 AA4 2 PRO A 233  ILE A 234 -1  O  ILE A 234   N  GLY A 226           
   1 AA5 9 LYS B  76  ALA B  77  0                                        
   2 AA5 9 LYS B  61  SER B  71 -1  N  GLN B  70   O  LYS B  76           
   3 AA5 9 GLY B  51  GLN B  58 -1  N  MET B  52   O  TYR B  67           
   4 AA5 9 ILE B 355  THR B 361 -1  O  LEU B 360   N  ALA B  53           
   5 AA5 9 GLY B 344  ILE B 350 -1  N  ILE B 350   O  ILE B 355           
   6 AA5 9 LYS B 332  SER B 339 -1  N  GLY B 338   O  THR B 345           
   7 AA5 9 GLU B 296  SER B 299 -1  N  PHE B 298   O  MET B 333           
   8 AA5 9 MET B 289  GLN B 291 -1  N  TYR B 290   O  GLU B 297           
   9 AA5 9 TYR B 284  VAL B 286 -1  N  VAL B 286   O  MET B 289           
   1 AA6 2 PHE B  84  GLU B  85  0                                        
   2 AA6 2 LYS B 249  SER B 250 -1  O  SER B 250   N  PHE B  84           
   1 AA7 2 TYR B 171  ARG B 172  0                                        
   2 AA7 2 ASN B 320  LYS B 321 -1  O  ASN B 320   N  ARG B 172           
   1 AA8 2 GLY B 226  TYR B 227  0                                        
   2 AA8 2 PRO B 233  ILE B 234 -1  O  ILE B 234   N  GLY B 226           
   1 AA9 9 LYS C  76  ALA C  77  0                                        
   2 AA9 9 LYS C  61  SER C  71 -1  N  GLN C  70   O  LYS C  76           
   3 AA9 9 GLY C  51  GLN C  58 -1  N  VAL C  56   O  TYR C  63           
   4 AA9 9 ILE C 355  THR C 361 -1  O  LEU C 360   N  ALA C  53           
   5 AA9 9 GLY C 344  ILE C 350 -1  N  ILE C 350   O  ILE C 355           
   6 AA9 9 LYS C 332  SER C 339 -1  N  GLY C 338   O  THR C 345           
   7 AA9 9 GLU C 296  SER C 299 -1  N  PHE C 298   O  MET C 333           
   8 AA9 9 MET C 289  GLN C 291 -1  N  TYR C 290   O  GLU C 297           
   9 AA9 9 TYR C 284  VAL C 286 -1  N  VAL C 286   O  MET C 289           
   1 AB1 2 PHE C  84  GLU C  85  0                                        
   2 AB1 2 LYS C 249  SER C 250 -1  O  SER C 250   N  PHE C  84           
   1 AB2 2 TYR C 171  ARG C 172  0                                        
   2 AB2 2 ASN C 320  LYS C 321 -1  O  ASN C 320   N  ARG C 172           
   1 AB3 2 GLY C 226  TYR C 227  0                                        
   2 AB3 2 PRO C 233  ILE C 234 -1  O  ILE C 234   N  GLY C 226           
   1 AB4 9 LYS D  76  ALA D  77  0                                        
   2 AB4 9 LYS D  61  SER D  71 -1  N  GLN D  70   O  LYS D  76           
   3 AB4 9 GLY D  51  GLN D  58 -1  N  MET D  52   O  TYR D  67           
   4 AB4 9 ILE D 355  THR D 361 -1  O  LEU D 360   N  ALA D  53           
   5 AB4 9 GLY D 344  ILE D 350 -1  N  VAL D 348   O  LEU D 357           
   6 AB4 9 LYS D 332  SER D 339 -1  N  GLY D 338   O  THR D 345           
   7 AB4 9 GLU D 296  SER D 299 -1  N  PHE D 298   O  MET D 333           
   8 AB4 9 MET D 289  GLN D 291 -1  N  TYR D 290   O  GLU D 297           
   9 AB4 9 TYR D 284  VAL D 286 -1  N  VAL D 286   O  MET D 289           
   1 AB5 2 PHE D  84  GLU D  85  0                                        
   2 AB5 2 LYS D 249  SER D 250 -1  O  SER D 250   N  PHE D  84           
   1 AB6 2 TYR D 171  ARG D 172  0                                        
   2 AB6 2 ASN D 320  LYS D 321 -1  O  ASN D 320   N  ARG D 172           
   1 AB7 2 GLY D 226  TYR D 227  0                                        
   2 AB7 2 PRO D 233  ILE D 234 -1  O  ILE D 234   N  GLY D 226           

>  <LINK>
       OG  SER A  88                 B   U2Y A 401     1555   1555  1.44  
       OG  SER B  88                 B   U2Y B 401     1555   1555  1.44  
       OG  SER C  88                 B   U2Y C 401     1555   1555  1.44  
       OG  SER D  88                 B   U2Y D 401     1555   1555  1.44  

>  <CISPEP>
   1 TYR A  300    PRO A  301          0         0.53                     
   2 TYR B  300    PRO B  301          0         1.08                     
   3 TYR C  300    PRO C  301          0         1.82                     
   4 TYR D  300    PRO D  301          0         0.98                     

>  <SITE>
   1 AC1  8 SER A  88  GLN A 144  TYR A 174  ASN A 176                    
   2 AC1  8 TYR A 246  GLY A 338  SER A 339  ASN A 341                    
   1 AC2  3 TRP A 117  LYS A 118  VAL A 119                               
   1 AC3  5 TYR B 100  PRO B 269  ASP B 271  ILE B 272                    
   2 AC3  5 HOH B 519                                                     
   1 AC4  3 TYR B 290  SER B 299  HOH B 546                               
   1 AC5 10 GLN B 229  VAL B 316  SER B 339  ARG B 364                    
   2 AC5 10 ILE B 365  PRO B 366  ASN B 367  ARG B 370                    
   3 AC5 10 HOH B 504  HOH B 538                                          
   1 AC6  7 ARG B 172  TYR B 174  MET B 289  GLU B 296                    
   2 AC6  7 SER B 310  ILE B 315  VAL B 316                               
   1 AC7  2 PRO B 238  LYS C  34                                          
   1 AC8  1 GLU C  45                                                     
   1 AC9  4 PHE B 225  VAL C  78  ASN C  79  HOH C 506                    
   1 AD1  4 ASN C 341  U2Y C 401  EPE C 403  HOH C 590                    
   1 AD2  1 GLU C  64                                                     
   1 AD3  4 GLN A 305  GLU A 368  MET D 220  EDO D 403                    
   1 AD4  7 GLN A 305  LEU A 308  MET D 220  ARG D 235                    
   2 AD4  7 EDO D 402  HOH D 707  HOH D 716                               
   1 AD5 10 PHE D 145  VAL D 149  GLN D 150  VAL D 236                    
   2 AD5 10 ASN D 237  ASP D 242  TYR D 246  ASN D 341                    
   3 AD5 10 HOH D 645  HOH D 681                                          
   1 AD6  4 ASN D 228  GLN D 229  ILE D 234  ASN D 341                    
   1 AD7  2 GLN D 314  PRO D 319                                          
   1 AD8  2 LYS D  61  LYS D  62                                          
   1 AD9 12 LEU B  86  GLY B  87  VAL B  89  SER B  90                    
   2 AD9 12 LYS B  91  GLN B 144  TYR B 174  ASN B 176                    
   3 AD9 12 TYR B 246  GLY B 338  SER B 339  HOH B 538                    
   1 AE1 15 LEU C  86  GLY C  87  VAL C  89  SER C  90                    
   2 AE1 15 LYS C  91  GLN C 144  TYR C 174  ASN C 176                    
   3 AE1 15 TYR C 246  LYS C 336  GLY C 338  SER C 339                    
   4 AE1 15 EPE C 404   CL C 407  HOH C 568                               
   1 AE2  7 PHE C 145  VAL C 149  ARG C 235  VAL C 236                    
   2 AE2  7 PRO C 238  ASP C 242   CL C 407                               
   1 AE3 12 GLN C 229  SER C 339  THR C 340  ASN C 341                    
   2 AE3 12 LYS C 363  ILE C 365  PRO C 366  ASN C 367                    
   3 AE3 12 ARG C 370  U2Y C 401  HOH C 524  HOH C 564                    
   1 AE4 14 LEU D  86  GLY D  87  VAL D  89  SER D  90                    
   2 AE4 14 LYS D  91  GLN D 144  TYR D 174  ASN D 176                    
   3 AE4 14 ALA D 245  TYR D 246  GLY D 338  SER D 339                    
   4 AE4 14 HOH D 637  HOH D 723                                          

>  <ORIGX1>
      1.000000  0.000000  0.000000        0.00000                         

>  <ORIGX2>
      0.000000  1.000000  0.000000        0.00000                         

>  <ORIGX3>
      0.000000  0.000000  1.000000        0.00000                         

>  <SCALE1>
      0.010725  0.000000  0.004627        0.00000                         

>  <SCALE2>
      0.000000  0.012357  0.000000        0.00000                         

>  <SCALE3>
      0.000000  0.000000  0.010434        0.00000                         

>  <ANISOU>
  488  N   SER A  88     4549   1434   1753   -717    705      8       N  
  489  CA  SER A  88     5958   2807   3080   -701    603     62       C  
  490  C   SER A  88     5625   2439   2706   -670    587     74       C  
  491  O   SER A  88     5830   2623   2846   -666    506    116       O  
  492  CB  SER A  88     6521   3333   3664   -622    534     90       C  
  493  OG  SER A  88     7315   4156   4510   -656    538     88       O  

>  <MASTER>
      900    0   22   76   60    0   41    612153    4  168  112          

$$$$
