start_structures/Ligand_Substrate/Ligand_Complex_Stripped/XD2_3N8S.pdb
 OpenBabel08222315193D

 37 39  0  0  1  0  0  0  0  0999 V2000
  -14.8590  -11.0880    5.7350 N   0  0  0  0  0  0  0  0  0  0  0  0
  -14.3960  -10.6990    7.0820 C   0  0  2  0  0  0  0  0  0  0  0  0
  -15.3340   -9.8150    7.8920 C   0  0  0  0  0  0  0  0  0  0  0  0
  -15.0320   -9.5290    9.0420 O   0  0  0  0  0  0  0  0  0  0  0  0
  -13.0770   -9.9490    6.9990 C   0  0  0  0  0  0  0  0  0  0  0  0
  -12.0140  -10.8520    6.7410 O   0  0  0  0  0  0  0  0  0  0  0  0
   -5.4990   -4.2520    0.9080 C   0  0  0  0  0  0  0  0  0  0  0  0
  -11.2090   -7.0400    5.2650 O   0  0  0  0  0  0  0  0  0  0  0  0
   -9.0090  -13.6840    3.6640 O   0  0  0  0  0  0  0  0  0  0  0  0
  -12.5210  -10.6810    4.4420 O   0  0  0  0  0  0  0  0  0  0  0  0
  -10.4330   -6.2820    3.6170 O   0  0  0  0  0  0  0  0  0  0  0  0
   -9.9160  -14.6440    1.2390 O   0  0  0  0  0  0  0  0  0  0  0  0
   -7.4560  -11.1050   -1.2150 C   0  0  0  0  0  0  0  0  0  0  0  0
   -8.7980  -10.9390   -1.1960 C   0  0  0  0  0  0  0  0  0  0  0  0
   -6.9260  -12.0020   -0.3300 C   0  0  0  0  0  0  0  0  0  0  0  0
   -9.6350  -11.6200   -0.3060 C   0  0  0  0  0  0  0  0  0  0  0  0
   -7.7580  -12.7020    0.5390 C   0  0  0  0  0  0  0  0  0  0  0  0
  -11.7040  -11.1010    5.4700 C   0  0  0  0  0  0  0  0  0  0  0  0
   -8.7140   -7.2920    2.2730 C   0  0  0  0  0  0  0  0  0  0  0  0
   -8.0660   -9.7310    2.9070 C   0  0  0  0  0  0  0  0  0  0  0  0
   -5.8850   -4.4660    4.3470 N   0  0  0  0  0  0  0  0  0  0  0  0
   -6.4030   -5.5550    4.1300 N   0  0  0  0  0  0  0  0  0  0  0  0
   -5.5210   -3.8820    3.3460 N   0  0  0  0  0  0  0  0  0  0  0  0
  -10.4830  -11.9770    3.5010 N   0  0  0  0  0  0  0  0  0  0  0  0
  -10.0040   -9.3250    5.0600 N   0  0  0  0  0  0  0  0  0  0  0  0
   -6.9850   -7.0240    1.7710 S   0  0  0  0  0  0  0  0  0  0  0  0
   -7.7540  -10.6980    4.4070 S   0  0  0  0  0  0  0  0  0  0  0  0
  -10.4970   -7.1150    4.3870 C   0  0  0  0  0  0  0  0  0  0  0  0
   -9.7330  -12.9590    2.9990 C   0  0  0  0  0  0  0  0  0  0  0  0
   -8.8780   -8.4590    3.1940 C   0  0  2  0  0  0  0  0  0  0  0  0
   -9.7960   -8.3800    4.2090 C   0  0  0  0  0  0  0  0  0  0  0  0
   -9.1120  -12.5120    0.5690 C   0  0  0  0  0  0  0  0  0  0  0  0
   -6.3640   -5.6640    2.8170 C   0  0  0  0  0  0  0  0  0  0  0  0
   -9.9920  -13.2800    1.5120 C   0  0  1  0  0  0  0  0  0  0  0  0
  -10.4280  -11.6190    4.9140 C   0  0  1  0  0  0  0  0  0  0  0  0
   -9.3740  -10.5970    5.1420 C   0  0  2  0  0  0  0  0  0  0  0  0
   -5.7620   -4.5710    2.3790 N   0  0  0  0  0  0  0  0  0  0  0  0
  2  1  1  6  0  0  0
  2  3  1  0  0  0  0
  3  4  2  0  0  0  0
  5  2  1  0  0  0  0
  6 18  1  0  0  0  0
  6  5  1  0  0  0  0
  7 37  1  0  0  0  0
  8 28  2  0  0  0  0
  9 29  2  0  0  0  0
 10 18  2  0  0  0  0
 11 28  1  0  0  0  0
 13 14  2  0  0  0  0
 13 15  1  0  0  0  0
 14 16  1  0  0  0  0
 15 17  2  0  0  0  0
 16 32  2  0  0  0  0
 17 32  1  0  0  0  0
 19 26  1  0  0  0  0
 20 27  1  0  0  0  0
 20 30  1  0  0  0  0
 21 22  1  0  0  0  0
 21 23  2  0  0  0  0
 22 33  2  0  0  0  0
 23 37  1  0  0  0  0
 24 29  1  0  0  0  0
 24 35  1  0  0  0  0
 25 31  2  0  0  0  0
 25 36  1  0  0  0  0
 26 33  1  0  0  0  0
 27 36  1  0  0  0  0
 28 31  1  0  0  0  0
 29 34  1  0  0  0  0
 30 19  1  6  0  0  0
 30 31  1  0  0  0  0
 32 34  1  0  0  0  0
 33 37  1  0  0  0  0
 34 12  1  1  0  0  0
 35 18  1  6  0  0  0
 36 35  1  6  0  0  0
M  END
>  <HEADER>
    HYDROLASE/ANTIBIOTIC                    28-MAY-10   3N8S              

>  <TITLE>
    CRYSTAL STRUCTURE OF BLAC-E166A COVALENTLY BOUND WITH CEFAMANDOLE     

>  <COMPND>
    MOL_ID: 1;                                                            
   2 MOLECULE: BETA-LACTAMASE;                                            
   3 CHAIN: A;                                                            
   4 SYNONYM: PENICILLINASE;                                              
   5 EC: 3.5.2.6;                                                         
   6 ENGINEERED: YES;                                                     
   7 MUTATION: YES                                                        

>  <SOURCE>
    MOL_ID: 1;                                                            
   2 ORGANISM_SCIENTIFIC: MYCOBACTERIUM TUBERCULOSIS;                     
   3 ORGANISM_TAXID: 1773;                                                
   4 STRAIN: H37RV;                                                       
   5 GENE: BLAA, BLAC, MT2128, MTCY49.07C, RV2068C;                       
   6 EXPRESSION_SYSTEM: ESCHERICHIA COLI;                                 
   7 EXPRESSION_SYSTEM_TAXID: 562;                                        
   8 EXPRESSION_SYSTEM_STRAIN: ROSETTA2;                                  
   9 EXPRESSION_SYSTEM_VECTOR: PLASMID;                                   
  10 EXPRESSION_SYSTEM_PLASMID: PET28A                                    

>  <KEYWDS>
    PENICILLIN BINDING PROTEIN, BETA-LACTAM COVALENT ADDUCT, HYDROLASE-   
   2 ANTIBIOTIC COMPLEX                                                   

>  <EXPDTA>
    X-RAY DIFFRACTION                                                     

>  <AUTHOR>
    L.W.TREMBLAY,J.S.BLANCHARD                                            

>  <REVDAT>
   3   08-NOV-17 3N8S    1       REMARK                                   
   2   23-MAY-12 3N8S    1       HEADER KEYWDS HETNAM HETSYN              
   2 2                   1       VERSN                                    
   1   24-NOV-10 3N8S    0                                                

>  <JRNL>
      AUTH   L.W.TREMBLAY,H.XU,J.S.BLANCHARD                              
      TITL   STRUCTURES OF THE MICHAELIS COMPLEX (1.2 A) AND THE COVALENT 
      TITL 2 ACYL INTERMEDIATE (2.0 A) OF CEFAMANDOLE BOUND IN THE ACTIVE 
      TITL 3 SITES OF THE MYCOBACTERIUM TUBERCULOSIS BETA-LACTAMASE K73A  
      TITL 4 AND E166A MUTANTS.                                           
      REF    BIOCHEMISTRY                  V.  49  9685 2010              
      REFN                   ISSN 0006-2960                               
      PMID   20961112                                                     
      DOI    10.1021/BI1015088                                            

>  <REMARK>
   2                                                                      
   2 RESOLUTION.    2.00 ANGSTROMS.                                       
   3                                                                      
   3 REFINEMENT.                                                          
   3   PROGRAM     : REFMAC 5.2.0019                                      
   3   AUTHORS     : MURSHUDOV,VAGIN,DODSON                               
   3                                                                      
   3    REFINEMENT TARGET : MAXIMUM LIKELIHOOD                            
   3                                                                      
   3  DATA USED IN REFINEMENT.                                            
   3   RESOLUTION RANGE HIGH (ANGSTROMS) : 2.00                           
   3   RESOLUTION RANGE LOW  (ANGSTROMS) : 41.56                          
   3   DATA CUTOFF            (SIGMA(F)) : 0.000                          
   3   COMPLETENESS FOR RANGE        (%) : 99.3                           
   3   NUMBER OF REFLECTIONS             : 16824                          
   3                                                                      
   3  FIT TO DATA USED IN REFINEMENT.                                     
   3   CROSS-VALIDATION METHOD          : THROUGHOUT                      
   3   FREE R VALUE TEST SET SELECTION  : RANDOM                          
   3   R VALUE     (WORKING + TEST SET) : 0.163                           
   3   R VALUE            (WORKING SET) : 0.161                           
   3   FREE R VALUE                     : 0.204                           
   3   FREE R VALUE TEST SET SIZE   (%) : 5.100                           
   3   FREE R VALUE TEST SET COUNT      : 906                             
   3                                                                      
   3  FIT IN THE HIGHEST RESOLUTION BIN.                                  
   3   TOTAL NUMBER OF BINS USED           : 20                           
   3   BIN RESOLUTION RANGE HIGH       (A) : 2.00                         
   3   BIN RESOLUTION RANGE LOW        (A) : 2.05                         
   3   REFLECTION IN BIN     (WORKING SET) : 1239                         
   3   BIN COMPLETENESS (WORKING+TEST) (%) : 99.54                        
   3   BIN R VALUE           (WORKING SET) : 0.1970                       
   3   BIN FREE R VALUE SET COUNT          : 68                           
   3   BIN FREE R VALUE                    : 0.2260                       
   3                                                                      
   3  NUMBER OF NON-HYDROGEN ATOMS USED IN REFINEMENT.                    
   3   PROTEIN ATOMS            : 1984                                    
   3   NUCLEIC ACID ATOMS       : 0                                       
   3   HETEROGEN ATOMS          : 41                                      
   3   SOLVENT ATOMS            : 286                                     
   3                                                                      
   3  B VALUES.                                                           
   3   FROM WILSON PLOT           (A**2) : 12.29                          
   3   MEAN B VALUE      (OVERALL, A**2) : 12.00                          
   3   OVERALL ANISOTROPIC B VALUE.                                       
   3    B11 (A**2) : 0.01000                                              
   3    B22 (A**2) : 0.00000                                              
   3    B33 (A**2) : -0.01000                                             
   3    B12 (A**2) : 0.00000                                              
   3    B13 (A**2) : 0.00000                                              
   3    B23 (A**2) : 0.00000                                              
   3                                                                      
   3  ESTIMATED OVERALL COORDINATE ERROR.                                 
   3   ESU BASED ON R VALUE                            (A): NULL          
   3   ESU BASED ON FREE R VALUE                       (A): 0.156         
   3   ESU BASED ON MAXIMUM LIKELIHOOD                 (A): 0.096         
   3   ESU FOR B VALUES BASED ON MAXIMUM LIKELIHOOD (A**2): 3.423         
   3                                                                      
   3 CORRELATION COEFFICIENTS.                                            
   3   CORRELATION COEFFICIENT FO-FC      : 0.950                         
   3   CORRELATION COEFFICIENT FO-FC FREE : 0.917                         
   3                                                                      
   3  RMS DEVIATIONS FROM IDEAL VALUES        COUNT    RMS    WEIGHT      
   3   BOND LENGTHS REFINED ATOMS        (A):  2068 ; 0.009 ; 0.022       
   3   BOND LENGTHS OTHERS               (A):  NULL ;  NULL ;  NULL       
   3   BOND ANGLES REFINED ATOMS   (DEGREES):  2825 ; 1.305 ; 1.988       
   3   BOND ANGLES OTHERS          (DEGREES):  NULL ;  NULL ;  NULL       
   3   TORSION ANGLES, PERIOD 1    (DEGREES):   264 ; 6.695 ; 5.000       
   3   TORSION ANGLES, PERIOD 2    (DEGREES):    87 ;38.295 ;23.103       
   3   TORSION ANGLES, PERIOD 3    (DEGREES):   302 ;11.587 ;15.000       
   3   TORSION ANGLES, PERIOD 4    (DEGREES):    19 ;20.181 ;15.000       
   3   CHIRAL-CENTER RESTRAINTS       (A**3):   319 ; 0.091 ; 0.200       
   3   GENERAL PLANES REFINED ATOMS      (A):  1591 ; 0.004 ; 0.020       
   3   GENERAL PLANES OTHERS             (A):  NULL ;  NULL ;  NULL       
   3   NON-BONDED CONTACTS REFINED ATOMS (A):  1034 ; 0.212 ; 0.200       
   3   NON-BONDED CONTACTS OTHERS        (A):  NULL ;  NULL ;  NULL       
   3   NON-BONDED TORSION REFINED ATOMS  (A):  1433 ; 0.295 ; 0.200       
   3   NON-BONDED TORSION OTHERS         (A):  NULL ;  NULL ;  NULL       
   3   H-BOND (X...Y) REFINED ATOMS      (A):   229 ; 0.170 ; 0.200       
   3   H-BOND (X...Y) OTHERS             (A):  NULL ;  NULL ;  NULL       
   3   POTENTIAL METAL-ION REFINED ATOMS (A):  NULL ;  NULL ;  NULL       
   3   POTENTIAL METAL-ION OTHERS        (A):  NULL ;  NULL ;  NULL       
   3   SYMMETRY VDW REFINED ATOMS        (A):    68 ; 0.319 ; 0.200       
   3   SYMMETRY VDW OTHERS               (A):  NULL ;  NULL ;  NULL       
   3   SYMMETRY H-BOND REFINED ATOMS     (A):    41 ; 0.167 ; 0.200       
   3   SYMMETRY H-BOND OTHERS            (A):  NULL ;  NULL ;  NULL       
   3   SYMMETRY METAL-ION REFINED ATOMS  (A):  NULL ;  NULL ;  NULL       
   3   SYMMETRY METAL-ION OTHERS         (A):  NULL ;  NULL ;  NULL       
   3                                                                      
   3  ISOTROPIC THERMAL FACTOR RESTRAINTS.     COUNT   RMS    WEIGHT      
   3   MAIN-CHAIN BOND REFINED ATOMS  (A**2):  1349 ; 0.475 ; 1.500       
   3   MAIN-CHAIN BOND OTHER ATOMS    (A**2):  NULL ;  NULL ;  NULL       
   3   MAIN-CHAIN ANGLE REFINED ATOMS (A**2):  2101 ; 0.805 ; 2.000       
   3   MAIN-CHAIN ANGLE OTHER ATOMS   (A**2):  NULL ;  NULL ;  NULL       
   3   SIDE-CHAIN BOND REFINED ATOMS  (A**2):   816 ; 1.420 ; 3.000       
   3   SIDE-CHAIN BOND OTHER ATOMS    (A**2):  NULL ;  NULL ;  NULL       
   3   SIDE-CHAIN ANGLE REFINED ATOMS (A**2):   724 ; 2.305 ; 4.500       
   3   SIDE-CHAIN ANGLE OTHER ATOMS   (A**2):  NULL ;  NULL ;  NULL       
   3   LONG RANGE B REFINED ATOMS     (A**2):  NULL ;  NULL ;  NULL       
   3   LONG RANGE B OTHER ATOMS       (A**2):  NULL ;  NULL ;  NULL       
   3                                                                      
   3 ANISOTROPIC THERMAL FACTOR RESTRAINTS.    COUNT   RMS   WEIGHT       
   3   RIGID-BOND RESTRAINTS          (A**2):  NULL ;  NULL ;  NULL       
   3   SPHERICITY; FREE ATOMS         (A**2):  NULL ;  NULL ;  NULL       
   3   SPHERICITY; BONDED ATOMS       (A**2):  NULL ;  NULL ;  NULL       
   3                                                                      
   3  NCS RESTRAINTS STATISTICS                                           
   3   NUMBER OF DIFFERENT NCS GROUPS : NULL                              
   3                                                                      
   3  TLS DETAILS                                                         
   3   NUMBER OF TLS GROUPS  : NULL                                       
   3                                                                      
   3  BULK SOLVENT MODELLING.                                             
   3   METHOD USED : MASK                                                 
   3   PARAMETERS FOR MASK CALCULATION                                    
   3   VDW PROBE RADIUS   : 1.20                                          
   3   ION PROBE RADIUS   : 0.80                                          
   3   SHRINKAGE RADIUS   : 0.80                                          
   3                                                                      
   3  OTHER REFINEMENT REMARKS: HYDROGENS HAVE BEEN ADDED IN THE RIDING   
   3  POSITIONS                                                           
   4                                                                      
   4 3N8S COMPLIES WITH FORMAT V. 3.30, 13-JUL-11                         
 100                                                                      
 100 THIS ENTRY HAS BEEN PROCESSED BY RCSB ON 09-JUN-10.                  
 100 THE DEPOSITION ID IS D_1000059523.                                   
 200                                                                      
 200 EXPERIMENTAL DETAILS                                                 
 200  EXPERIMENT TYPE                : X-RAY DIFFRACTION                  
 200  DATE OF DATA COLLECTION        : NULL; NULL                         
 200  TEMPERATURE           (KELVIN) : 100; 100                           
 200  PH                             : 7.5                                
 200  NUMBER OF CRYSTALS USED        : 1                                  
 200                                                                      
 200  SYNCHROTRON              (Y/N) : Y; Y                               
 200  RADIATION SOURCE               : NSLS; NSLS                         
 200  BEAMLINE                       : X12C; X29A                         
 200  X-RAY GENERATOR MODEL          : NULL; NULL                         
 200  MONOCHROMATIC OR LAUE    (M/L) : NULL; NULL                         
 200  WAVELENGTH OR RANGE        (A) : 1.000; 1.000                       
 200  MONOCHROMATOR                  : SI(111) CHANNEL CUT; SI(111)       
 200                                   CHANNEL CUT                        
 200  OPTICS                         : NULL; NULL                         
 200                                                                      
 200  DETECTOR TYPE                  : CCD; CCD                           
 200  DETECTOR MANUFACTURER          : ADSC QUANTUM 210; ADSC QUANTUM     
 200                                   210                                
 200  INTENSITY-INTEGRATION SOFTWARE : HKL-2000                           
 200  DATA SCALING SOFTWARE          : HKL-2000                           
 200                                                                      
 200  NUMBER OF UNIQUE REFLECTIONS   : 17730                              
 200  RESOLUTION RANGE HIGH      (A) : 2.000                              
 200  RESOLUTION RANGE LOW       (A) : 41.560                             
 200  REJECTION CRITERIA  (SIGMA(I)) : 0.000                              
 200                                                                      
 200 OVERALL.                                                             
 200  COMPLETENESS FOR RANGE     (%) : 99.3                               
 200  DATA REDUNDANCY                : 5.500                              
 200  R MERGE                    (I) : 0.13600                            
 200  R SYM                      (I) : NULL                               
 200  <I/SIGMA(I)> FOR THE DATA SET  : 4.9000                             
 200                                                                      
 200 IN THE HIGHEST RESOLUTION SHELL.                                     
 200  HIGHEST RESOLUTION SHELL, RANGE HIGH (A) : 2.00                     
 200  HIGHEST RESOLUTION SHELL, RANGE LOW  (A) : 2.05                     
 200  COMPLETENESS FOR SHELL     (%) : 99.5                               
 200  DATA REDUNDANCY IN SHELL       : 5.50                               
 200  R MERGE FOR SHELL          (I) : 0.37200                            
 200  R SYM FOR SHELL            (I) : NULL                               
 200  <I/SIGMA(I)> FOR SHELL         : 1.800                              
 200                                                                      
 200 DIFFRACTION PROTOCOL: SINGLE WAVELENGTH; SINGLE WAVELENGTH           
 200 METHOD USED TO DETERMINE THE STRUCTURE: MOLECULAR REPLACEMENT        
 200 SOFTWARE USED: DIRECT                                                
 200 STARTING MODEL: NULL                                                 
 200                                                                      
 200 REMARK: NULL                                                         
 280                                                                      
 280 CRYSTAL                                                              
 280 SOLVENT CONTENT, VS   (%): 45.50                                     
 280 MATTHEWS COEFFICIENT, VM (ANGSTROMS**3/DA): 2.26                     
 280                                                                      
 280 CRYSTALLIZATION CONDITIONS: 0.1 M HEPES, 2 M NH4H2PO4, PH 7.5,       
 280  VAPOR DIFFUSION, SITTING DROP, TEMPERATURE 298K                     
 290                                                                      
 290 CRYSTALLOGRAPHIC SYMMETRY                                            
 290 SYMMETRY OPERATORS FOR SPACE GROUP: P 21 21 21                       
 290                                                                      
 290      SYMOP   SYMMETRY                                                
 290     NNNMMM   OPERATOR                                                
 290       1555   X,Y,Z                                                   
 290       2555   -X+1/2,-Y,Z+1/2                                         
 290       3555   -X,Y+1/2,-Z+1/2                                         
 290       4555   X+1/2,-Y+1/2,-Z                                         
 290                                                                      
 290     WHERE NNN -> OPERATOR NUMBER                                     
 290           MMM -> TRANSLATION VECTOR                                  
 290                                                                      
 290 CRYSTALLOGRAPHIC SYMMETRY TRANSFORMATIONS                            
 290 THE FOLLOWING TRANSFORMATIONS OPERATE ON THE ATOM/HETATM             
 290 RECORDS IN THIS ENTRY TO PRODUCE CRYSTALLOGRAPHICALLY                
 290 RELATED MOLECULES.                                                   
 290   SMTRY1   1  1.000000  0.000000  0.000000        0.00000            
 290   SMTRY2   1  0.000000  1.000000  0.000000        0.00000            
 290   SMTRY3   1  0.000000  0.000000  1.000000        0.00000            
 290   SMTRY1   2 -1.000000  0.000000  0.000000       24.91550            
 290   SMTRY2   2  0.000000 -1.000000  0.000000        0.00000            
 290   SMTRY3   2  0.000000  0.000000  1.000000       37.65700            
 290   SMTRY1   3 -1.000000  0.000000  0.000000        0.00000            
 290   SMTRY2   3  0.000000  1.000000  0.000000       33.93450            
 290   SMTRY3   3  0.000000  0.000000 -1.000000       37.65700            
 290   SMTRY1   4  1.000000  0.000000  0.000000       24.91550            
 290   SMTRY2   4  0.000000 -1.000000  0.000000       33.93450            
 290   SMTRY3   4  0.000000  0.000000 -1.000000        0.00000            
 290                                                                      
 290 REMARK: NULL                                                         
 300                                                                      
 300 BIOMOLECULE: 1                                                       
 300 SEE REMARK 350 FOR THE AUTHOR PROVIDED AND/OR PROGRAM                
 300 GENERATED ASSEMBLY INFORMATION FOR THE STRUCTURE IN                  
 300 THIS ENTRY. THE REMARK MAY ALSO PROVIDE INFORMATION ON               
 300 BURIED SURFACE AREA.                                                 
 350                                                                      
 350 COORDINATES FOR A COMPLETE MULTIMER REPRESENTING THE KNOWN           
 350 BIOLOGICALLY SIGNIFICANT OLIGOMERIZATION STATE OF THE                
 350 MOLECULE CAN BE GENERATED BY APPLYING BIOMT TRANSFORMATIONS          
 350 GIVEN BELOW.  BOTH NON-CRYSTALLOGRAPHIC AND                          
 350 CRYSTALLOGRAPHIC OPERATIONS ARE GIVEN.                               
 350                                                                      
 350 BIOMOLECULE: 1                                                       
 350 AUTHOR DETERMINED BIOLOGICAL UNIT: MONOMERIC                         
 350 SOFTWARE DETERMINED QUATERNARY STRUCTURE: MONOMERIC                  
 350 SOFTWARE USED: PISA                                                  
 350 APPLY THE FOLLOWING TO CHAINS: A                                     
 350   BIOMT1   1  1.000000  0.000000  0.000000        0.00000            
 350   BIOMT2   1  0.000000  1.000000  0.000000        0.00000            
 350   BIOMT3   1  0.000000  0.000000  1.000000        0.00000            
 500                                                                      
 500 GEOMETRY AND STEREOCHEMISTRY                                         
 500 SUBTOPIC: COVALENT BOND LENGTHS                                      
 500                                                                      
 500 THE STEREOCHEMICAL PARAMETERS OF THE FOLLOWING RESIDUES              
 500 HAVE VALUES WHICH DEVIATE FROM EXPECTED VALUES BY MORE               
 500 THAN 6*RMSD (M=MODEL NUMBER; RES=RESIDUE NAME; C=CHAIN               
 500 IDENTIFIER; SSEQ=SEQUENCE NUMBER; I=INSERTION CODE).                 
 500                                                                      
 500 STANDARD TABLE:                                                      
 500 FORMAT: (10X,I3,1X,2(A3,1X,A1,I4,A1,1X,A4,3X),1X,F6.3)               
 500                                                                      
 500 EXPECTED VALUES PROTEIN: ENGH AND HUBER, 1999                        
 500 EXPECTED VALUES NUCLEIC ACID: CLOWNEY ET AL 1996                     
 500                                                                      
 500  M RES CSSEQI ATM1   RES CSSEQI ATM2   DEVIATION                     
 500    HIS A 124   NE2   HIS A 124   CD2    -0.068                       
 500                                                                      
 500 REMARK: NULL                                                         
 500                                                                      
 500 GEOMETRY AND STEREOCHEMISTRY                                         
 500 SUBTOPIC: TORSION ANGLES                                             
 500                                                                      
 500 TORSION ANGLES OUTSIDE THE EXPECTED RAMACHANDRAN REGIONS:            
 500 (M=MODEL NUMBER; RES=RESIDUE NAME; C=CHAIN IDENTIFIER;               
 500 SSEQ=SEQUENCE NUMBER; I=INSERTION CODE).                             
 500                                                                      
 500 STANDARD TABLE:                                                      
 500 FORMAT:(10X,I3,1X,A3,1X,A1,I4,A1,4X,F7.2,3X,F7.2)                    
 500                                                                      
 500 EXPECTED VALUES: GJ KLEYWEGT AND TA JONES (1996). PHI/PSI-           
 500 CHOLOGY: RAMACHANDRAN REVISITED. STRUCTURE 4, 1395 - 1400            
 500                                                                      
 500  M RES CSSEQI        PSI       PHI                                   
 500    THR A  66     -161.79   -124.09                                   
 500    CYS A  83     -143.62     47.53                                   
 500    ARG A 236     -118.92   -114.88                                   
 500                                                                      
 500 REMARK: NULL                                                         
 800                                                                      
 800 SITE                                                                 
 800 SITE_IDENTIFIER: AC1                                                 
 800 EVIDENCE_CODE: SOFTWARE                                              
 800 SITE_DESCRIPTION: BINDING SITE FOR RESIDUE PO4 A 1                   
 800                                                                      
 800 SITE_IDENTIFIER: AC2                                                 
 800 EVIDENCE_CODE: SOFTWARE                                              
 800 SITE_DESCRIPTION: BINDING SITE FOR RESIDUE PO4 A 2                   
 800                                                                      
 800 SITE_IDENTIFIER: AC3                                                 
 800 EVIDENCE_CODE: SOFTWARE                                              
 800 SITE_DESCRIPTION: BINDING SITE FOR RESIDUE XD2 A 308                 

>  <DBREF>
 3N8S A   43   307  UNP    P0C5C1   BLAC_MYCTU      43    307             

>  <SEQADV>
 3N8S ALA A  182  UNP  P0C5C1    GLU   182 ENGINEERED MUTATION            

>  <SEQRES>
   1 A  265  ASP LEU ALA ASP ARG PHE ALA GLU LEU GLU ARG ARG TYR          
   2 A  265  ASP ALA ARG LEU GLY VAL TYR VAL PRO ALA THR GLY THR          
   3 A  265  THR ALA ALA ILE GLU TYR ARG ALA ASP GLU ARG PHE ALA          
   4 A  265  PHE CYS SER THR PHE LYS ALA PRO LEU VAL ALA ALA VAL          
   5 A  265  LEU HIS GLN ASN PRO LEU THR HIS LEU ASP LYS LEU ILE          
   6 A  265  THR TYR THR SER ASP ASP ILE ARG SER ILE SER PRO VAL          
   7 A  265  ALA GLN GLN HIS VAL GLN THR GLY MET THR ILE GLY GLN          
   8 A  265  LEU CYS ASP ALA ALA ILE ARG TYR SER ASP GLY THR ALA          
   9 A  265  ALA ASN LEU LEU LEU ALA ASP LEU GLY GLY PRO GLY GLY          
  10 A  265  GLY THR ALA ALA PHE THR GLY TYR LEU ARG SER LEU GLY          
  11 A  265  ASP THR VAL SER ARG LEU ASP ALA GLU ALA PRO GLU LEU          
  12 A  265  ASN ARG ASP PRO PRO GLY ASP GLU ARG ASP THR THR THR          
  13 A  265  PRO HIS ALA ILE ALA LEU VAL LEU GLN GLN LEU VAL LEU          
  14 A  265  GLY ASN ALA LEU PRO PRO ASP LYS ARG ALA LEU LEU THR          
  15 A  265  ASP TRP MET ALA ARG ASN THR THR GLY ALA LYS ARG ILE          
  16 A  265  ARG ALA GLY PHE PRO ALA ASP TRP LYS VAL ILE ASP LYS          
  17 A  265  THR GLY THR GLY ASP TYR GLY ARG ALA ASN ASP ILE ALA          
  18 A  265  VAL VAL TRP SER PRO THR GLY VAL PRO TYR VAL VAL ALA          
  19 A  265  VAL MET SER ASP ARG ALA GLY GLY GLY TYR ASP ALA GLU          
  20 A  265  PRO ARG GLU ALA LEU LEU ALA GLU ALA ALA THR CYS VAL          
  21 A  265  ALA GLY VAL LEU ALA                                          

>  <HET>
 PO4  A   1       5                                                       
 PO4  A   2       5                                                       
 XD2  A 308      31                                                       

>  <HETNAM>
     PO4 PHOSPHATE ION                                                    
     XD2 (2R)-2-[(1R)-1-{[(2R)-2-HYDROXY-2-PHENYLACETYL]AMINO}-           
   2 XD2  2-OXOETHYL]-5-{[(1-METHYL-1H-TETRAZOL-5-YL)                     
   3 XD2  SULFANYL]METHYL}-3,6-DIHYDRO-2H-1,3-THIAZINE-4-                 
   4 XD2  CARBOXYLIC ACID                                                 

>  <HETSYN>
     XD2 CEFAMANDOLE, BOUND FORM                                          

>  <FORMUL>
   2  PO4    2(O4 P 3-)                                                   
   4  XD2    C18 H20 N6 O5 S2                                             
   5  HOH   *286(H2 O)                                                    

>  <HELIX>
   1   1 ASP A   43  TYR A   55  1                                  13    
   2   2 CYS A   83  THR A   85  5                                   3    
   3   3 PHE A   86  ASN A   98  1                                  13    
   4   4 PRO A   99  ASP A  104  5                                   6    
   5   5 THR A  110  ILE A  114  5                                   5    
   6   6 VAL A  120  VAL A  125  5                                   6    
   7   7 ILE A  131  TYR A  141  1                                  11    
   8   8 ASP A  143  GLY A  155  1                                  13    
   9   9 GLY A  156  GLY A  159  5                                   4    
  10  10 GLY A  160  LEU A  171  1                                  12    
  11  11 PRO A  183  ARG A  187  5                                   5    
  12  12 THR A  198  LEU A  211  1                                  14    
  13  13 PRO A  216  ARG A  229  1                                  14    
  14  14 ARG A  236  PHE A  241  1                                   6    
  15  15 ARG A  281  GLY A  285  5                                   5    
  16  16 ARG A  291  ALA A  307  1                                  17    

>  <SHEET>
   1   A 5 ILE A  72  TYR A  74  0                                        
   2   A 5 ARG A  58  VAL A  63 -1  N  VAL A  61   O  TYR A  74           
   3   A 5 PRO A 272  ASP A 280 -1  O  MET A 278   N  GLY A  60           
   4   A 5 ARG A 258  TRP A 266 -1  N  VAL A 265   O  TYR A 273           
   5   A 5 LYS A 246  GLY A 254 -1  N  GLY A 252   O  ASN A 260           
   1   B 2 PHE A  80  ALA A  81  0                                        
   2   B 2 THR A 196  THR A 197 -1  O  THR A 197   N  PHE A  80           
   1   C 2 LEU A 106  ILE A 107  0                                        
   2   C 2 MET A 129  THR A 130 -1  O  MET A 129   N  ILE A 107           

>  <LINK>
       OG  SER A  84                 CAL XD2 A 308     1555   1555  1.33  

>  <CISPEP>
   1 ALA A  182    PRO A  183          0         1.90                     

>  <SITE>
   1 AC1  7 ARG A  79  ARG A 187  GLU A 193  ASP A 255                    
   2 AC1  7 TYR A 286  XD2 A 308  HOH A 511                               
   1 AC2  7 HOH A  25  HOH A  33  ARG A  75  GLU A  78                    
   2 AC2  7 GLU A 184  HOH A 477  HOH A 482                               
   1 AC3 15 PO4 A   1  CYS A  83  SER A  84  ILE A 117                    
   2 AC3 15 SER A 142  ASN A 186  GLU A 193  THR A 232                    
   3 AC3 15 LYS A 250  THR A 251  GLY A 252  THR A 253                    
   4 AC3 15 HOH A 339  HOH A 340  HOH A 367                               

>  <ORIGX1>
      1.000000  0.000000  0.000000        0.00000                         

>  <ORIGX2>
      0.000000  1.000000  0.000000        0.00000                         

>  <ORIGX3>
      0.000000  0.000000  1.000000        0.00000                         

>  <SCALE1>
      0.020068  0.000000  0.000000        0.00000                         

>  <SCALE2>
      0.000000  0.014734  0.000000        0.00000                         

>  <SCALE3>
      0.000000  0.000000  0.013278        0.00000                         

>  <MASTER>
      289    0    3   16    9    0    8    6 2311    1   42   21          

$$$$
