start_structures/Ligand_Substrate/Ligand_Complex_Stripped/ZX1_2WZZ.pdb
 OpenBabel08222315213D

 28 29  0  0  1  0  0  0  0  0999 V2000
    7.3780    8.4370   16.9270 N   0  0  0  0  0  0  0  0  0  0  0  0
    6.9640    7.6200   18.0790 C   0  0  2  0  0  0  0  0  0  0  0  0
    6.7000    6.1450   17.8050 C   0  0  0  0  0  0  0  0  0  0  0  0
    6.5220    5.3940   18.7550 O   0  0  0  0  0  0  0  0  0  0  0  0
    5.7200    8.1920   18.7300 C   0  0  0  0  0  0  0  0  0  0  0  0
    6.0110    9.4120   19.3840 O   0  0  0  0  0  0  0  0  0  0  0  0
    1.5880   10.3640   18.4360 S   0  0  0  0  0  0  0  0  0  0  0  0
    1.5560   10.6450   17.0140 O   0  0  0  0  0  0  0  0  0  0  0  0
    0.8620   11.3130   19.2630 O   0  0  0  0  0  0  0  0  0  0  0  0
    1.3150    8.9720   18.7560 O   0  0  0  0  0  0  0  0  0  0  0  0
    3.2260   10.5980   18.8580 N   0  0  0  0  0  0  0  0  0  0  0  0
    3.6870   11.9850   19.0960 C   0  0  2  0  0  0  0  0  0  0  0  0
    3.5670   12.9030   17.8920 C   0  0  0  0  0  0  0  0  0  0  0  0
    4.7940   13.8020   17.9480 C   0  0  0  0  0  0  0  0  0  0  0  0
    5.7340   13.0670   18.7610 N   0  0  0  0  0  0  0  0  0  0  0  0
    5.1640   11.8880   19.3320 C   0  0  2  0  0  0  0  0  0  0  0  0
    5.6420   10.7470   18.4870 C   0  0  0  0  0  0  0  0  0  0  0  0
    5.7090   10.6310   17.2650 O   0  0  0  0  0  0  0  0  0  0  0  0
    7.0810   13.3490   18.9080 C   0  0  0  0  0  0  0  0  0  0  0  0
    7.8710   12.5290   19.3640 O   0  0  0  0  0  0  0  0  0  0  0  0
    7.4480   14.6140   18.5170 N   0  0  0  0  0  0  0  0  0  0  0  0
    8.8310   15.0070   18.6520 C   0  0  2  0  0  0  0  0  0  0  0  0
    8.9030   16.1480   19.6510 C   0  0  0  0  0  0  0  0  0  0  0  0
   10.3160   16.3560   20.1500 C   0  0  0  0  0  0  0  0  0  0  0  0
   11.0640   17.3930   19.3340 C   0  0  0  0  0  0  0  0  0  0  0  0
   10.9100   17.1790   17.8650 N   0  0  0  0  0  0  0  0  0  0  0  0
   10.8700   15.7690   17.3910 C   0  0  0  0  0  0  0  0  0  0  0  0
    9.4050   15.3770   17.2960 C   0  0  0  0  0  0  0  0  0  0  0  0
  2  1  1  6  0  0  0
  2  5  1  0  0  0  0
  3  2  1  0  0  0  0
  3  4  2  0  0  0  0
  5  6  1  0  0  0  0
  6 17  1  0  0  0  0
  7  8  1  0  0  0  0
  7  9  1  0  0  0  0
  7 10  1  0  0  0  0
  7 11  1  0  0  0  0
 12 11  1  6  0  0  0
 12 13  1  0  0  0  0
 12 16  1  0  0  0  0
 13 14  1  0  0  0  0
 14 15  1  0  0  0  0
 15 16  1  0  0  0  0
 15 19  1  0  0  0  0
 16 17  1  6  0  0  0
 17 18  2  0  0  0  0
 19 20  2  0  0  0  0
 19 21  1  0  0  0  0
 22 21  1  6  0  0  0
 22 23  1  0  0  0  0
 22 28  1  0  0  0  0
 23 24  1  0  0  0  0
 24 25  1  0  0  0  0
 25 26  1  0  0  0  0
 26 27  1  0  0  0  0
 27 28  1  0  0  0  0
M  END
>  <HEADER>
    HYDROLASE                               03-DEC-09   2WZZ              

>  <TITLE>
    AMP-C BETA-LACTAMASE (PSEUDOMONAS AERUGINOSA)IN COMPLEX               
   2 WITH COMPOUND M-03                                                   

>  <COMPND>
    MOL_ID: 1;                                                            
   2 MOLECULE: BETA-LACTAMASE;                                            
   3 CHAIN: A;                                                            
   4 SYNONYM: AMP-C BETA-LACTAMASE, CEPHALOSPORINASE;                     
   5 EC: 3.5.2.6;                                                         
   6 ENGINEERED: YES                                                      

>  <SOURCE>
    MOL_ID: 1;                                                            
   2 ORGANISM_SCIENTIFIC: PSEUDOMONAS AERUGINOSA;                         
   3 ORGANISM_TAXID: 287;                                                 
   4 EXPRESSION_SYSTEM: ESCHERICHIA COLI;                                 
   5 EXPRESSION_SYSTEM_TAXID: 562                                         

>  <KEYWDS>
    INHIBITOR, HYDROLASE, ANTIBIOTIC RESISTANCE                           

>  <EXPDTA>
    X-RAY DIFFRACTION                                                     

>  <AUTHOR>
    P.M.D.FITZGERALD,N.SHARMA,J.LU                                        

>  <REVDAT>
   3   16-FEB-10 2WZZ    1       JRNL   REMARK                            
   2   02-FEB-10 2WZZ    1       REMARK                                   
   1   12-JAN-10 2WZZ    0                                                

>  <JRNL>
      AUTH   T.A.BLIZZARD,H.CHEN,S.KIM,J.WU,K.YOUNG,Y.PARK,               
      AUTH 2 A.OGAWA,S.RAGHOOBAR,R.E.PAINTER,N.HAIRSTON,S.H.LEE,          
      AUTH 3 A.MISURA,T.FELCETTO,P.M.D.FITZGERALD,N.SHARMA,J.LU,          
      AUTH 4 S.HA,E.HICKEY,J.HERMES,M.L.HAMMOND                           
      TITL   SIDE CHAIN SAR OF BICYCLIC BETA-LACTAMASE                    
      TITL 2 INHIBITORS (BLIS). 1. DISCOVERY OF A CLASS C BLI             
      TITL 3 FOR COMBINATION WITH IMIPINEM.                               
      REF    BIOORG.MED.CHEM.LETT.         V.  20   918 2010              
      REFN                   ISSN 0960-894X                               
      PMID   20044254                                                     
      DOI    10.1016/J.BMCL.2009.12.069                                   

>  <REMARK>
   2                                                                      
   2 RESOLUTION.    1.57 ANGSTROMS.                                       
   3                                                                      
   3 REFINEMENT.                                                          
   3   PROGRAM     : REFMAC 5.5.0072                                      
   3   AUTHORS     : MURSHUDOV,VAGIN,DODSON                               
   3                                                                      
   3    REFINEMENT TARGET : MAXIMUM LIKELIHOOD                            
   3                                                                      
   3  DATA USED IN REFINEMENT.                                            
   3   RESOLUTION RANGE HIGH (ANGSTROMS) : 1.57                           
   3   RESOLUTION RANGE LOW  (ANGSTROMS) : 59.93                          
   3   DATA CUTOFF            (SIGMA(F)) : NONE                           
   3   COMPLETENESS FOR RANGE        (%) : 99.29                          
   3   NUMBER OF REFLECTIONS             : 46064                          
   3                                                                      
   3  FIT TO DATA USED IN REFINEMENT.                                     
   3   CROSS-VALIDATION METHOD          : THROUGHOUT                      
   3   FREE R VALUE TEST SET SELECTION  : RANDOM                          
   3   R VALUE     (WORKING + TEST SET) : 0.18139                         
   3   R VALUE            (WORKING SET) : 0.18058                         
   3   FREE R VALUE                     : 0.19659                         
   3   FREE R VALUE TEST SET SIZE   (%) : 5.1                             
   3   FREE R VALUE TEST SET COUNT      : 2456                            
   3                                                                      
   3  FIT IN THE HIGHEST RESOLUTION BIN.                                  
   3   TOTAL NUMBER OF BINS USED           : 20                           
   3   BIN RESOLUTION RANGE HIGH       (A) : 1.574                        
   3   BIN RESOLUTION RANGE LOW        (A) : 1.615                        
   3   REFLECTION IN BIN     (WORKING SET) : 3062                         
   3   BIN COMPLETENESS (WORKING+TEST) (%) : 90.91                        
   3   BIN R VALUE           (WORKING SET) : 0.234                        
   3   BIN FREE R VALUE SET COUNT          : 178                          
   3   BIN FREE R VALUE                    : 0.226                        
   3                                                                      
   3  NUMBER OF NON-HYDROGEN ATOMS USED IN REFINEMENT.                    
   3   PROTEIN ATOMS            : 2795                                    
   3   NUCLEIC ACID ATOMS       : 0                                       
   3   HETEROGEN ATOMS          : 23                                      
   3   SOLVENT ATOMS            : 290                                     
   3                                                                      
   3  B VALUES.                                                           
   3   FROM WILSON PLOT           (A**2) : 16.2                           
   3   MEAN B VALUE      (OVERALL, A**2) : 15.233                         
   3   OVERALL ANISOTROPIC B VALUE.                                       
   3    B11 (A**2) : 0.18                                                 
   3    B22 (A**2) : -0.37                                                
   3    B33 (A**2) : 0.18                                                 
   3    B12 (A**2) : 0.00                                                 
   3    B13 (A**2) : 0.00                                                 
   3    B23 (A**2) : 0.00                                                 
   3                                                                      
   3  ESTIMATED OVERALL COORDINATE ERROR.                                 
   3   ESU BASED ON R VALUE                            (A): 0.088         
   3   ESU BASED ON FREE R VALUE                       (A): 0.082         
   3   ESU BASED ON MAXIMUM LIKELIHOOD                 (A): 0.048         
   3   ESU FOR B VALUES BASED ON MAXIMUM LIKELIHOOD (A**2): 1.314         
   3                                                                      
   3  CORRELATION COEFFICIENTS.                                           
   3   CORRELATION COEFFICIENT FO-FC      : 0.959                         
   3   CORRELATION COEFFICIENT FO-FC FREE : 0.952                         
   3                                                                      
   3  RMS DEVIATIONS FROM IDEAL VALUES        COUNT    RMS    WEIGHT      
   3   BOND LENGTHS REFINED ATOMS        (A):  2892 ; 0.008 ; 0.022       
   3   BOND LENGTHS OTHERS               (A):  NULL ;  NULL ;  NULL       
   3   BOND ANGLES REFINED ATOMS   (DEGREES):  3948 ; 1.206 ; 1.981       
   3   BOND ANGLES OTHERS          (DEGREES):  NULL ;  NULL ;  NULL       
   3   TORSION ANGLES, PERIOD 1    (DEGREES):   367 ; 5.840 ; 5.000       
   3   TORSION ANGLES, PERIOD 2    (DEGREES):   130 ;33.635 ;23.846       
   3   TORSION ANGLES, PERIOD 3    (DEGREES):   439 ;12.063 ;15.000       
   3   TORSION ANGLES, PERIOD 4    (DEGREES):    20 ;16.048 ;15.000       
   3   CHIRAL-CENTER RESTRAINTS       (A**3):   424 ; 0.081 ; 0.200       
   3   GENERAL PLANES REFINED ATOMS      (A):  2267 ; 0.006 ; 0.021       
   3   GENERAL PLANES OTHERS             (A):  NULL ;  NULL ;  NULL       
   3   NON-BONDED CONTACTS REFINED ATOMS (A):  NULL ;  NULL ;  NULL       
   3   NON-BONDED CONTACTS OTHERS        (A):  NULL ;  NULL ;  NULL       
   3   NON-BONDED TORSION REFINED ATOMS  (A):  NULL ;  NULL ;  NULL       
   3   NON-BONDED TORSION OTHERS         (A):  NULL ;  NULL ;  NULL       
   3   H-BOND (X...Y) REFINED ATOMS      (A):  NULL ;  NULL ;  NULL       
   3   H-BOND (X...Y) OTHERS             (A):  NULL ;  NULL ;  NULL       
   3   POTENTIAL METAL-ION REFINED ATOMS (A):  NULL ;  NULL ;  NULL       
   3   POTENTIAL METAL-ION OTHERS        (A):  NULL ;  NULL ;  NULL       
   3   SYMMETRY VDW REFINED ATOMS        (A):  NULL ;  NULL ;  NULL       
   3   SYMMETRY VDW OTHERS               (A):  NULL ;  NULL ;  NULL       
   3   SYMMETRY H-BOND REFINED ATOMS     (A):  NULL ;  NULL ;  NULL       
   3   SYMMETRY H-BOND OTHERS            (A):  NULL ;  NULL ;  NULL       
   3   SYMMETRY METAL-ION REFINED ATOMS  (A):  NULL ;  NULL ;  NULL       
   3   SYMMETRY METAL-ION OTHERS         (A):  NULL ;  NULL ;  NULL       
   3                                                                      
   3  ISOTROPIC THERMAL FACTOR RESTRAINTS.     COUNT   RMS    WEIGHT      
   3   MAIN-CHAIN BOND REFINED ATOMS  (A**2):  1816 ; 0.540 ; 1.500       
   3   MAIN-CHAIN BOND OTHER ATOMS    (A**2):  NULL ;  NULL ;  NULL       
   3   MAIN-CHAIN ANGLE REFINED ATOMS (A**2):  2900 ; 1.033 ; 2.000       
   3   SIDE-CHAIN BOND REFINED ATOMS  (A**2):  1076 ; 1.840 ; 3.000       
   3   SIDE-CHAIN ANGLE REFINED ATOMS (A**2):  1048 ; 3.069 ; 4.500       
   3                                                                      
   3  ANISOTROPIC THERMAL FACTOR RESTRAINTS.   COUNT   RMS    WEIGHT      
   3   RIGID-BOND RESTRAINTS          (A**2):  NULL ;  NULL ;  NULL       
   3   SPHERICITY; FREE ATOMS         (A**2):  NULL ;  NULL ;  NULL       
   3   SPHERICITY; BONDED ATOMS       (A**2):  NULL ;  NULL ;  NULL       
   3                                                                      
   3  NCS RESTRAINTS STATISTICS                                           
   3   NUMBER OF DIFFERENT NCS GROUPS : NULL                              
   3                                                                      
   3  TLS DETAILS                                                         
   3   NUMBER OF TLS GROUPS  : NULL                                       
   3                                                                      
   3  BULK SOLVENT MODELLING.                                             
   3   METHOD USED : MASK                                                 
   3   PARAMETERS FOR MASK CALCULATION                                    
   3   VDW PROBE RADIUS   : 1.40                                          
   3   ION PROBE RADIUS   : 0.80                                          
   3   SHRINKAGE RADIUS   : 0.80                                          
   3                                                                      
   3  OTHER REFINEMENT REMARKS: HYDROGENS HAVE BEEN ADDED IN THE          
   3   RIDING POSITIONS.                                                  
   4                                                                      
   4 2WZZ COMPLIES WITH FORMAT V. 3.20, 01-DEC-08                         
 100                                                                      
 100 THIS ENTRY HAS BEEN PROCESSED BY PDBE ON 04-DEC-09.                  
 100 THE PDBE ID CODE IS EBI-41946.                                       
 200                                                                      
 200 EXPERIMENTAL DETAILS                                                 
 200  EXPERIMENT TYPE                : X-RAY DIFFRACTION                  
 200  DATE OF DATA COLLECTION        : 14-JUL-06                          
 200  TEMPERATURE           (KELVIN) : 77                                 
 200  PH                             : NULL                               
 200  NUMBER OF CRYSTALS USED        : 2                                  
 200                                                                      
 200  SYNCHROTRON              (Y/N) : Y                                  
 200  RADIATION SOURCE               : APS                                
 200  BEAMLINE                       : 17-ID                              
 200  X-RAY GENERATOR MODEL          : NULL                               
 200  MONOCHROMATIC OR LAUE    (M/L) : M                                  
 200  WAVELENGTH OR RANGE        (A) : 1.000                              
 200  MONOCHROMATOR                  : NULL                               
 200  OPTICS                         : NULL                               
 200                                                                      
 200  DETECTOR TYPE                  : CCD                                
 200  DETECTOR MANUFACTURER          : ADSC                               
 200  INTENSITY-INTEGRATION SOFTWARE : DENZO                              
 200  DATA SCALING SOFTWARE          : SCALPACK                           
 200                                                                      
 200  NUMBER OF UNIQUE REFLECTIONS   : 48596                              
 200  RESOLUTION RANGE HIGH      (A) : 1.57                               
 200  RESOLUTION RANGE LOW       (A) : 50.00                              
 200  REJECTION CRITERIA  (SIGMA(I)) : 2.0                                
 200                                                                      
 200 OVERALL.                                                             
 200  COMPLETENESS FOR RANGE     (%) : 100.0                              
 200  DATA REDUNDANCY                : 8.8                                
 200  R MERGE                    (I) : 0.10                               
 200  R SYM                      (I) : NULL                               
 200  <I/SIGMA(I)> FOR THE DATA SET  : 20.30                              
 200                                                                      
 200 IN THE HIGHEST RESOLUTION SHELL.                                     
 200  HIGHEST RESOLUTION SHELL, RANGE HIGH (A) : NULL                     
 200  HIGHEST RESOLUTION SHELL, RANGE LOW  (A) : NULL                     
 200  COMPLETENESS FOR SHELL     (%) : NULL                               
 200  DATA REDUNDANCY IN SHELL       : NULL                               
 200  R MERGE FOR SHELL          (I) : NULL                               
 200  R SYM FOR SHELL            (I) : NULL                               
 200  <I/SIGMA(I)> FOR SHELL         : NULL                               
 200                                                                      
 200 DIFFRACTION PROTOCOL: SINGLE WAVELENGTH                              
 200 METHOD USED TO DETERMINE THE STRUCTURE: OTHER                        
 200 SOFTWARE USED: NULL                                                  
 200 STARTING MODEL: NULL                                                 
 200                                                                      
 200 REMARK: NONE                                                         
 280                                                                      
 280 CRYSTAL                                                              
 280 SOLVENT CONTENT, VS   (%): 37.54                                     
 280 MATTHEWS COEFFICIENT, VM (ANGSTROMS**3/DA): 1.98                     
 280                                                                      
 280 CRYSTALLIZATION CONDITIONS: NULL                                     
 290                                                                      
 290 CRYSTALLOGRAPHIC SYMMETRY                                            
 290 SYMMETRY OPERATORS FOR SPACE GROUP: P 21 21 21                       
 290                                                                      
 290      SYMOP   SYMMETRY                                                
 290     NNNMMM   OPERATOR                                                
 290       1555   X,Y,Z                                                   
 290       2555   -X+1/2,-Y,Z+1/2                                         
 290       3555   -X,Y+1/2,-Z+1/2                                         
 290       4555   X+1/2,-Y+1/2,-Z                                         
 290                                                                      
 290     WHERE NNN -> OPERATOR NUMBER                                     
 290           MMM -> TRANSLATION VECTOR                                  
 290                                                                      
 290 CRYSTALLOGRAPHIC SYMMETRY TRANSFORMATIONS                            
 290 THE FOLLOWING TRANSFORMATIONS OPERATE ON THE ATOM/HETATM             
 290 RECORDS IN THIS ENTRY TO PRODUCE CRYSTALLOGRAPHICALLY                
 290 RELATED MOLECULES.                                                   
 290   SMTRY1   1  1.000000  0.000000  0.000000        0.00000            
 290   SMTRY2   1  0.000000  1.000000  0.000000        0.00000            
 290   SMTRY3   1  0.000000  0.000000  1.000000        0.00000            
 290   SMTRY1   2 -1.000000  0.000000  0.000000       22.39550            
 290   SMTRY2   2  0.000000 -1.000000  0.000000        0.00000            
 290   SMTRY3   2  0.000000  0.000000  1.000000       53.13550            
 290   SMTRY1   3 -1.000000  0.000000  0.000000        0.00000            
 290   SMTRY2   3  0.000000  1.000000  0.000000       36.28750            
 290   SMTRY3   3  0.000000  0.000000 -1.000000       53.13550            
 290   SMTRY1   4  1.000000  0.000000  0.000000       22.39550            
 290   SMTRY2   4  0.000000 -1.000000  0.000000       36.28750            
 290   SMTRY3   4  0.000000  0.000000 -1.000000        0.00000            
 290                                                                      
 290 REMARK: NULL                                                         
 300                                                                      
 300 BIOMOLECULE: 1                                                       
 300 SEE REMARK 350 FOR THE AUTHOR PROVIDED AND/OR PROGRAM                
 300 GENERATED ASSEMBLY INFORMATION FOR THE STRUCTURE IN                  
 300 THIS ENTRY. THE REMARK MAY ALSO PROVIDE INFORMATION ON               
 300 BURIED SURFACE AREA.                                                 
 350                                                                      
 350 COORDINATES FOR A COMPLETE MULTIMER REPRESENTING THE KNOWN           
 350 BIOLOGICALLY SIGNIFICANT OLIGOMERIZATION STATE OF THE                
 350 MOLECULE CAN BE GENERATED BY APPLYING BIOMT TRANSFORMATIONS          
 350 GIVEN BELOW. BOTH NON-CRYSTALLOGRAPHIC AND                           
 350 CRYSTALLOGRAPHIC OPERATIONS ARE GIVEN.                               
 350                                                                      
 350 BIOMOLECULE: 1                                                       
 350 AUTHOR DETERMINED BIOLOGICAL UNIT: MONOMERIC                         
 350 SOFTWARE DETERMINED QUATERNARY STRUCTURE: MONOMERIC                  
 350 SOFTWARE USED: PISA                                                  
 350 APPLY THE FOLLOWING TO CHAINS: A                                     
 350   BIOMT1   1  1.000000  0.000000  0.000000        0.00000            
 350   BIOMT2   1  0.000000  1.000000  0.000000        0.00000            
 350   BIOMT3   1  0.000000  0.000000  1.000000        0.00000            
 465                                                                      
 465 MISSING RESIDUES                                                     
 465 THE FOLLOWING RESIDUES WERE NOT LOCATED IN THE                       
 465 EXPERIMENT. (M=MODEL NUMBER; RES=RESIDUE NAME; C=CHAIN               
 465 IDENTIFIER; SSSEQ=SEQUENCE NUMBER; I=INSERTION CODE.)                
 465                                                                      
 465   M RES C SSSEQI                                                     
 465     GLY A    27                                                      
 465     GLU A    28                                                      
 465     GLN A   389                                                      
 465     GLN A   390                                                      
 465     GLY A   391                                                      
 465     LYS A   392                                                      
 465     VAL A   393                                                      
 465     PRO A   394                                                      
 465     LEU A   395                                                      
 465     LYS A   396                                                      
 465     ARG A   397                                                      
 470                                                                      
 470 MISSING ATOM                                                         
 470 THE FOLLOWING RESIDUES HAVE MISSING ATOMS (M=MODEL NUMBER;           
 470 RES=RESIDUE NAME; C=CHAIN IDENTIFIER; SSEQ=SEQUENCE NUMBER;          
 470 I=INSERTION CODE):                                                   
 470   M RES CSSEQI  ATOMS                                                
 470     LYS A  47    CD   CE   NZ                                        
 470     ARG A  79    NE   CZ   NH1  NH2                                  
 470     ARG A 110    CZ   NH1  NH2                                       
 470     LYS A 232    CD   CE   NZ                                        
 470     ARG A 235    CD   NE   CZ   NH1  NH2                             
 470     ARG A 324    CG   CD   NE   CZ   NH1  NH2                        
 470     GLU A 388    CG   CD   OE1  OE2                                  
 500                                                                      
 500 GEOMETRY AND STEREOCHEMISTRY                                         
 500 SUBTOPIC: CLOSE CONTACTS IN SAME ASYMMETRIC UNIT                     
 500                                                                      
 500 THE FOLLOWING ATOMS ARE IN CLOSE CONTACT.                            
 500                                                                      
 500  ATM1  RES C  SSEQI   ATM2  RES C  SSEQI           DISTANCE          
 500   NE2  GLN A   337     O    HOH A  2260              1.97            
 500                                                                      
 500 REMARK: NULL                                                         
 500                                                                      
 500 GEOMETRY AND STEREOCHEMISTRY                                         
 500 SUBTOPIC: TORSION ANGLES                                             
 500                                                                      
 500 TORSION ANGLES OUTSIDE THE EXPECTED RAMACHANDRAN REGIONS:            
 500 (M=MODEL NUMBER; RES=RESIDUE NAME; C=CHAIN IDENTIFIER;               
 500 SSEQ=SEQUENCE NUMBER; I=INSERTION CODE).                             
 500                                                                      
 500 STANDARD TABLE:                                                      
 500 FORMAT:(10X,I3,1X,A3,1X,A1,I4,A1,4X,F7.2,3X,F7.2)                    
 500                                                                      
 500 EXPECTED VALUES: GJ KLEYWEGT AND TA JONES (1996). PHI/PSI-           
 500 CHOLOGY: RAMACHANDRAN REVISITED. STRUCTURE 4, 1395 - 1400            
 500                                                                      
 500  M RES CSSEQI        PSI       PHI                                   
 500    GLN A 204      -54.72   -120.07                                   
 500    TYR A 249       30.73   -159.97                                   
 500    ASN A 368       38.14    -99.81                                   
 500                                                                      
 500 REMARK: NULL                                                         
 800                                                                      
 800 SITE                                                                 
 800 SITE_IDENTIFIER: AC1                                                 
 800 EVIDENCE_CODE: SOFTWARE                                              
 800 SITE_DESCRIPTION: BINDING SITE FOR RESIDUE ZX1 A 600                 
 800                                                                      
 800 SITE_IDENTIFIER: AC2                                                 
 800 EVIDENCE_CODE: SOFTWARE                                              
 800 SITE_DESCRIPTION: BINDING SITE FOR RESIDUE  CL A1000                 
 900                                                                      
 900 RELATED ENTRIES                                                      
 900 RELATED ID: 2WZX   RELATED DB: PDB                                   
 900  AMP-C BETA-LACTAMASE (PSEUDOMONAS AERUGINOSA)                       
 900  IN COMPLEX WITH COMPOUND M-02                                       

>  <DBREF>
 2WZZ A   27   397  UNP    P24735   AMPC_PSEAE      27    397             

>  <SEQRES>
   1 A  371  GLY GLU ALA PRO ALA ASP ARG LEU LYS ALA LEU VAL ASP          
   2 A  371  ALA ALA VAL GLN PRO VAL MET LYS ALA ASN ASP ILE PRO          
   3 A  371  GLY LEU ALA VAL ALA ILE SER LEU LYS GLY GLU PRO HIS          
   4 A  371  TYR PHE SER TYR GLY LEU ALA SER LYS GLU ASP GLY ARG          
   5 A  371  ARG VAL THR PRO GLU THR LEU PHE GLU ILE GLY SER VAL          
   6 A  371  SER LYS THR PHE THR ALA THR LEU ALA GLY TYR ALA LEU          
   7 A  371  THR GLN ASP LYS MET ARG LEU ASP ASP ARG ALA SER GLN          
   8 A  371  HIS TRP PRO ALA LEU GLN GLY SER ARG PHE ASP GLY ILE          
   9 A  371  SER LEU LEU ASP LEU ALA THR TYR THR ALA GLY GLY LEU          
  10 A  371  PRO LEU GLN PHE PRO ASP SER VAL GLN LYS ASP GLN ALA          
  11 A  371  GLN ILE ARG ASP TYR TYR ARG GLN TRP GLN PRO THR TYR          
  12 A  371  ALA PRO GLY SER GLN ARG LEU TYR SER ASN PRO SER ILE          
  13 A  371  GLY LEU PHE GLY TYR LEU ALA ALA ARG SER LEU GLY GLN          
  14 A  371  PRO PHE GLU ARG LEU MET GLU GLN GLN VAL PHE PRO ALA          
  15 A  371  LEU GLY LEU GLU GLN THR HIS LEU ASP VAL PRO GLU ALA          
  16 A  371  ALA LEU ALA GLN TYR ALA GLN GLY TYR GLY LYS ASP ASP          
  17 A  371  ARG PRO LEU ARG VAL GLY PRO GLY PRO LEU ASP ALA GLU          
  18 A  371  GLY TYR GLY VAL LYS THR SER ALA ALA ASP LEU LEU ARG          
  19 A  371  PHE VAL ASP ALA ASN LEU HIS PRO GLU ARG LEU ASP ARG          
  20 A  371  PRO TRP ALA GLN ALA LEU ASP ALA THR HIS ARG GLY TYR          
  21 A  371  TYR LYS VAL GLY ASP MET THR GLN GLY LEU GLY TRP GLU          
  22 A  371  ALA TYR ASP TRP PRO ILE SER LEU LYS ARG LEU GLN ALA          
  23 A  371  GLY ASN SER THR PRO MET ALA LEU GLN PRO HIS ARG ILE          
  24 A  371  ALA ARG LEU PRO ALA PRO GLN ALA LEU GLU GLY GLN ARG          
  25 A  371  LEU LEU ASN LYS THR GLY SER THR ASN GLY PHE GLY ALA          
  26 A  371  TYR VAL ALA PHE VAL PRO GLY ARG ASP LEU GLY LEU VAL          
  27 A  371  ILE LEU ALA ASN ARG ASN TYR PRO ASN ALA GLU ARG VAL          
  28 A  371  LYS ILE ALA TYR ALA ILE LEU SER GLY LEU GLU GLN GLN          
  29 A  371  GLY LYS VAL PRO LEU LYS ARG                                  

>  <HET>
 ZX1  A 600      22                                                       
  CL  A1000       1                                                       

>  <HETNAM>
     ZX1 (3R)-1-[(4R)-AZEPAN-4-YLCARBAMOYL]-3-                            
   2 ZX1  (SULFOAMINO)-L-PROLINE                                          
      CL CHLORIDE ION                                                     

>  <FORMUL>
   2  ZX1    C12 H22 N4 O6 S                                              
   3   CL    CL 1-                                                        
   4  HOH   *290(H2 O)                                                    

>  <HELIX>
   1   1 ALA A   29  ASN A   49  1                                  21    
   2   2 VAL A   91  GLN A  106  1                                  16    
   3   3 ALA A  115  TRP A  119  5                                   5    
   4   4 TRP A  119  GLN A  123  5                                   5    
   5   5 SER A  125  ILE A  130  5                                   6    
   6   6 SER A  131  THR A  137  1                                   7    
   7   7 ASP A  154  TRP A  165  1                                  12    
   8   8 SER A  178  LEU A  193  1                                  16    
   9   9 PRO A  196  GLN A  204  1                                   9    
  10  10 GLN A  204  LEU A  209  1                                   6    
  11  11 PRO A  219  GLN A  225  5                                   7    
  12  12 GLY A  231  ARG A  235  5                                   5    
  13  13 LEU A  244  GLY A  250  1                                   7    
  14  14 ALA A  255  HIS A  267  1                                  13    
  15  15 PRO A  268  LEU A  271  5                                   4    
  16  16 ASP A  272  ALA A  281  1                                  10    
  17  17 SER A  306  ASN A  314  1                                   9    
  18  18 SER A  315  GLN A  321  1                                   7    
  19  19 PRO A  357  ASP A  360  5                                   4    
  20  20 PRO A  372  GLU A  388  1                                  17    

>  <SHEET>
   1  AA 9 GLU A  63  GLY A  70  0                                        
   2  AA 9 GLY A  53  LEU A  60 -1  O  LEU A  54   N  TYR A  69           
   3  AA 9 LEU A 361  ALA A 367 -1  O  GLY A 362   N  SER A  59           
   4  AA 9 GLY A 350  VAL A 356 -1  O  GLY A 350   N  ALA A 367           
   5  AA 9 ARG A 338  SER A 345 -1  O  LEU A 340   N  PHE A 355           
   6  AA 9 GLU A 299  ASP A 302 -1  O  GLU A 299   N  ASN A 341           
   7  AA 9 MET A 292  GLN A 294 -1  O  THR A 293   N  ALA A 300           
   8  AA 9 ARG A 284  VAL A 289 -1  N  TYR A 286   O  GLN A 294           
   9  AA 9 ALA A 326  ALA A 333 -1  O  ALA A 326   N  LYS A 288           
   1  AB 3 LEU A  85  GLU A  87  0                                        
   2  AB 3 LYS A 252  SER A 254 -1  O  THR A 253   N  PHE A  86           
   3  AB 3 THR A 214  HIS A 215 -1  O  HIS A 215   N  LYS A 252           
   1  AC 2 GLN A 174  ARG A 175  0                                        
   2  AC 2 HIS A 323  ARG A 324 -1  O  HIS A 323   N  ARG A 175           

>  <LINK>
       OG  SER A  90                 C11 ZX1 A 600     1555   1555  1.65  

>  <CISPEP>
   1 TRP A  303    PRO A  304          0         1.87                     

>  <SITE>
   1 AC1 13 SER A  90  GLN A 146  TYR A 177  ASN A 179                    
   2 AC1 13 LYS A 342  THR A 343  GLY A 344  SER A 345                    
   3 AC1 13 HOH A2267  HOH A2287  HOH A2288  HOH A2289                    
   4 AC1 13 HOH A2290                                                     
   1 AC2  4 GLN A 146  PHE A 147  ASN A 179  HOH A2187                    

>  <ORIGX1>
      1.000000  0.000000  0.000000        0.00000                         

>  <ORIGX2>
      0.000000  1.000000  0.000000        0.00000                         

>  <ORIGX3>
      0.000000  0.000000  1.000000        0.00000                         

>  <SCALE1>
      0.022326  0.000000  0.000000        0.00000                         

>  <SCALE2>
      0.000000  0.013779  0.000000        0.00000                         

>  <SCALE3>
      0.000000  0.000000  0.009410        0.00000                         

>  <MASTER>
      304    0    2   20   14    0    5    6 3108    1   23   29          

$$$$
