start_structures/Ligand_Substrate/Ligand_Complex_Stripped/ZXM_5EEC.pdb
 OpenBabel08222315203D

 37 42  0  0  1  0  0  0  0  0999 V2000
    1.3820    0.0230   19.7010 N   0  0  0  0  0  0  0  0  0  0  0  0
    0.7210   -1.1620   19.1060 C   0  0  2  0  0  0  0  0  0  0  0  0
    0.8790   -1.3120   17.5870 C   0  0  0  0  0  0  0  0  0  0  0  0
    0.4080   -2.2910   17.0120 O   0  0  0  0  0  0  0  0  0  0  0  0
   -0.7690   -1.1930   19.4550 C   0  0  0  0  0  0  0  0  0  0  0  0
   -0.9830   -1.6080   20.7980 O   0  0  0  0  0  0  0  0  0  0  0  0
   -0.6310   -0.8030   22.0630 B   0  0  0  0  0  0  0  0  0  0  0  0
    0.8280   -1.2180   22.2910 O   0  0  0  0  0  0  0  0  0  0  0  0
   -0.6770    0.6310   21.5430 O   0  0  0  0  0  0  0  0  0  0  0  0
   -3.6270   -0.1900   22.2430 N   0  0  2  0  0  0  0  0  0  0  0  0
   -3.8490   -0.1920   22.5370 N   0  0  1  0  0  0  0  0  0  0  0  0
   -4.2360    0.9300   22.8030 N   0  0  0  0  0  0  0  0  0  0  0  0
   -4.1180   -0.0210   21.1800 N   0  0  1  0  0  0  0  0  0  0  0  0
   -4.6240    1.7360   21.8530 N   0  0  1  0  0  0  0  0  0  0  0  0
   -4.7710    1.0810   20.9710 N   0  0  2  0  0  0  0  0  0  0  0  0
   -1.5850   -1.1250   23.3270 C   0  0  1  0  0  0  0  0  0  0  0  0
   -3.0960   -1.2570   23.0820 C   0  0  0  0  0  0  0  0  0  0  0  0
   -3.0730   -1.3650   22.9690 C   0  0  0  0  0  0  0  0  0  0  0  0
   -1.3750   -0.0560   24.3020 N   0  0  0  0  0  0  0  0  0  0  0  0
   -1.5600   -0.3420   25.6110 C   0  0  0  0  0  0  0  0  0  0  0  0
   -1.2360    0.7940   26.5430 C   0  0  0  0  0  0  0  0  0  0  0  0
   -2.4140    1.7170   26.6650 C   0  0  0  0  0  0  0  0  0  0  0  0
   -2.9120    2.7760   25.9070 C   0  0  0  0  0  0  0  0  0  0  0  0
   -4.0870    3.3180   26.4640 C   0  0  0  0  0  0  0  0  0  0  0  0
   -4.4830    2.6900   27.6380 C   0  0  0  0  0  0  0  0  0  0  0  0
   -1.9680   -1.4370   26.0450 O   0  0  0  0  0  0  0  0  0  0  0  0
   -4.2680    1.2000   20.6730 C   0  0  2  0  0  0  0  0  0  0  0  0
   -4.9920    1.6560   22.1750 C   0  0  1  0  0  0  0  0  0  0  0  0
   -3.6410   -0.0100   20.9290 C   0  0  1  0  0  0  0  0  0  0  0  0
   -4.3830    0.8610   23.1630 C   0  0  0  0  0  0  0  0  0  0  0  0
   -4.4670    1.7180   19.3090 C   0  0  0  0  0  0  0  0  0  0  0  0
   -5.7320    2.9140   22.4680 C   0  0  0  0  0  0  0  0  0  0  0  0
   -4.0890    0.9740   18.3740 O   0  0  0  0  0  0  0  0  0  0  0  0
   -5.6860    3.3910   23.5940 O   0  0  0  0  0  0  0  0  0  0  0  0
   -4.9980    2.8450   19.1540 O   0  0  0  0  0  0  0  0  0  0  0  0
   -6.3960    3.4520   21.5930 O   0  0  0  0  0  0  0  0  0  0  0  0
   -3.4090    1.3920   28.0500 S   0  0  0  0  0  0  0  0  0  0  0  0
  2  5  1  0  0  0  0
  2  1  1  6  0  0  0
  3  2  1  0  0  0  0
  4  3  2  0  0  0  0
  5  6  1  0  0  0  0
  6  7  1  0  0  0  0
  7  8  1  0  0  0  0
  7  9  1  0  0  0  0
  7 16  1  0  0  0  0
 10 12  1  0  0  0  0
 10 17  1  1  0  0  0
 10 29  1  0  0  0  0
 11 13  1  0  0  0  0
 11 18  1  6  0  0  0
 11 30  1  0  0  0  0
 12 14  1  0  0  0  0
 13 15  1  0  0  0  0
 14 27  1  0  0  0  0
 14 28  1  0  0  0  0
 15 28  1  0  0  0  0
 16 17  1  0  0  0  0
 16 18  1  0  0  0  0
 16 19  1  0  0  0  0
 19 20  1  0  0  0  0
 20 21  1  0  0  0  0
 20 26  2  0  0  0  0
 21 22  1  0  0  0  0
 22 23  2  0  0  0  0
 22 37  1  0  0  0  0
 23 24  1  0  0  0  0
 24 25  2  0  0  0  0
 25 37  1  0  0  0  0
 27 29  1  0  0  0  0
 27 31  1  0  0  0  0
 27 15  1  0  0  0  0
 28 30  1  0  0  0  0
 28 32  1  0  0  0  0
 29 13  1  0  0  0  0
 31 33  2  0  0  0  0
 31 35  1  0  0  0  0
 32 34  2  0  0  0  0
 32 36  1  0  0  0  0
M  END
>  <HEADER>
    HYDROLASE/HYDROLASE INHIBITOR           22-OCT-15   5EEC              

>  <TITLE>
    CRYSTAL STRUCTURE OF KPC-2 BETA-LACTAMASE IN COMPLEX WITH THE S02030  
   2 BORONIC ACID INHIBITOR                                               

>  <COMPND>
    MOL_ID: 1;                                                            
   2 MOLECULE: CARBAPENEM-HYDROLYZING BETA-LACTAMASE KPC;                 
   3 CHAIN: A, B;                                                         
   4 SYNONYM: CARBAPENEM-HYDROLYZING BETA-LACTAMASE KPC-1;                
   5 EC: 3.5.2.6;                                                         
   6 ENGINEERED: YES                                                      

>  <SOURCE>
    MOL_ID: 1;                                                            
   2 ORGANISM_SCIENTIFIC: KLEBSIELLA PNEUMONIAE;                          
   3 ORGANISM_TAXID: 573;                                                 
   4 GENE: BLA, KPC, KPC1;                                                
   5 EXPRESSION_SYSTEM: ESCHERICHIA COLI;                                 
   6 EXPRESSION_SYSTEM_TAXID: 562                                         

>  <KEYWDS>
    TRANSITION STATE INHIBITOR, HYDROLASE-HYDROLASE INHIBITOR COMPLEX     

>  <EXPDTA>
    X-RAY DIFFRACTION                                                     

>  <AUTHOR>
    N.Q.NGUYEN,F.VAN DEN AKKER                                            

>  <REVDAT>
   2   09-MAR-16 5EEC    1       JRNL                                     
   1   03-FEB-16 5EEC    0                                                

>  <JRNL>
      AUTH   N.Q.NGUYEN,N.P.KRISHNAN,L.J.ROJAS,F.PRATI,E.CASELLI,         
      AUTH 2 C.ROMAGNOLI,R.A.BONOMO,F.VAN DEN AKKER                       
      TITL   CRYSTAL STRUCTURES OF KPC-2 AND SHV-1 BETA-LACTAMASES IN     
      TITL 2 COMPLEX WITH THE BORONIC ACID TRANSITION STATE ANALOG        
      TITL 3 S02030.                                                      
      REF    ANTIMICROB.AGENTS CHEMOTHER.  V.  60  1760 2016              
      REFN                   ESSN 1098-6596                               
      PMID   26729491                                                     
      DOI    10.1128/AAC.02643-15                                         

>  <REMARK>
   2                                                                      
   2 RESOLUTION.    1.87 ANGSTROMS.                                       
   3                                                                      
   3 REFINEMENT.                                                          
   3   PROGRAM     : REFMAC 5.7.0029                                      
   3   AUTHORS     : MURSHUDOV,VAGIN,DODSON                               
   3                                                                      
   3    REFINEMENT TARGET : MAXIMUM LIKELIHOOD                            
   3                                                                      
   3  DATA USED IN REFINEMENT.                                            
   3   RESOLUTION RANGE HIGH (ANGSTROMS) : 1.87                           
   3   RESOLUTION RANGE LOW  (ANGSTROMS) : 32.88                          
   3   DATA CUTOFF            (SIGMA(F)) : 0.000                          
   3   COMPLETENESS FOR RANGE        (%) : 96.4                           
   3   NUMBER OF REFLECTIONS             : 37196                          
   3                                                                      
   3  FIT TO DATA USED IN REFINEMENT.                                     
   3   CROSS-VALIDATION METHOD          : THROUGHOUT                      
   3   FREE R VALUE TEST SET SELECTION  : RANDOM                          
   3   R VALUE     (WORKING + TEST SET) : 0.168                           
   3   R VALUE            (WORKING SET) : 0.166                           
   3   FREE R VALUE                     : 0.206                           
   3   FREE R VALUE TEST SET SIZE   (%) : 5.000                           
   3   FREE R VALUE TEST SET COUNT      : 1959                            
   3                                                                      
   3  FIT IN THE HIGHEST RESOLUTION BIN.                                  
   3   TOTAL NUMBER OF BINS USED           : 20                           
   3   BIN RESOLUTION RANGE HIGH       (A) : 1.87                         
   3   BIN RESOLUTION RANGE LOW        (A) : 1.92                         
   3   REFLECTION IN BIN     (WORKING SET) : 2437                         
   3   BIN COMPLETENESS (WORKING+TEST) (%) : 85.90                        
   3   BIN R VALUE           (WORKING SET) : 0.2360                       
   3   BIN FREE R VALUE SET COUNT          : 122                          
   3   BIN FREE R VALUE                    : 0.3020                       
   3                                                                      
   3  NUMBER OF NON-HYDROGEN ATOMS USED IN REFINEMENT.                    
   3   PROTEIN ATOMS            : 3958                                    
   3   NUCLEIC ACID ATOMS       : 0                                       
   3   HETEROGEN ATOMS          : 74                                      
   3   SOLVENT ATOMS            : 419                                     
   3                                                                      
   3  B VALUES.                                                           
   3   FROM WILSON PLOT           (A**2) : NULL                           
   3   MEAN B VALUE      (OVERALL, A**2) : 13.04                          
   3   OVERALL ANISOTROPIC B VALUE.                                       
   3    B11 (A**2) : 0.00000                                              
   3    B22 (A**2) : 0.00000                                              
   3    B33 (A**2) : 0.00000                                              
   3    B12 (A**2) : 0.00000                                              
   3    B13 (A**2) : 0.00000                                              
   3    B23 (A**2) : 0.00000                                              
   3                                                                      
   3  ESTIMATED OVERALL COORDINATE ERROR.                                 
   3   ESU BASED ON R VALUE                            (A): 0.155         
   3   ESU BASED ON FREE R VALUE                       (A): 0.138         
   3   ESU BASED ON MAXIMUM LIKELIHOOD                 (A): 0.094         
   3   ESU FOR B VALUES BASED ON MAXIMUM LIKELIHOOD (A**2): 3.211         
   3                                                                      
   3 CORRELATION COEFFICIENTS.                                            
   3   CORRELATION COEFFICIENT FO-FC      : 0.948                         
   3   CORRELATION COEFFICIENT FO-FC FREE : 0.920                         
   3                                                                      
   3  RMS DEVIATIONS FROM IDEAL VALUES        COUNT    RMS    WEIGHT      
   3   BOND LENGTHS REFINED ATOMS        (A):  4184 ; 0.012 ; 0.019       
   3   BOND LENGTHS OTHERS               (A):  3952 ; 0.001 ; 0.020       
   3   BOND ANGLES REFINED ATOMS   (DEGREES):  5701 ; 1.718 ; 1.984       
   3   BOND ANGLES OTHERS          (DEGREES):  9057 ; 1.362 ; 3.001       
   3   TORSION ANGLES, PERIOD 1    (DEGREES):   535 ; 6.262 ; 5.000       
   3   TORSION ANGLES, PERIOD 2    (DEGREES):   166 ;36.029 ;23.494       
   3   TORSION ANGLES, PERIOD 3    (DEGREES):   636 ;14.378 ;15.000       
   3   TORSION ANGLES, PERIOD 4    (DEGREES):    31 ;11.988 ;15.000       
   3   CHIRAL-CENTER RESTRAINTS       (A**3):   648 ; 0.083 ; 0.200       
   3   GENERAL PLANES REFINED ATOMS      (A):  4781 ; 0.008 ; 0.021       
   3   GENERAL PLANES OTHERS             (A):   940 ; 0.001 ; 0.020       
   3   NON-BONDED CONTACTS REFINED ATOMS (A):  NULL ;  NULL ;  NULL       
   3   NON-BONDED CONTACTS OTHERS        (A):  NULL ;  NULL ;  NULL       
   3   NON-BONDED TORSION REFINED ATOMS  (A):  NULL ;  NULL ;  NULL       
   3   NON-BONDED TORSION OTHERS         (A):  NULL ;  NULL ;  NULL       
   3   H-BOND (X...Y) REFINED ATOMS      (A):  NULL ;  NULL ;  NULL       
   3   H-BOND (X...Y) OTHERS             (A):  NULL ;  NULL ;  NULL       
   3   POTENTIAL METAL-ION REFINED ATOMS (A):  NULL ;  NULL ;  NULL       
   3   POTENTIAL METAL-ION OTHERS        (A):  NULL ;  NULL ;  NULL       
   3   SYMMETRY VDW REFINED ATOMS        (A):  NULL ;  NULL ;  NULL       
   3   SYMMETRY VDW OTHERS               (A):  NULL ;  NULL ;  NULL       
   3   SYMMETRY H-BOND REFINED ATOMS     (A):  NULL ;  NULL ;  NULL       
   3   SYMMETRY H-BOND OTHERS            (A):  NULL ;  NULL ;  NULL       
   3   SYMMETRY METAL-ION REFINED ATOMS  (A):  NULL ;  NULL ;  NULL       
   3   SYMMETRY METAL-ION OTHERS         (A):  NULL ;  NULL ;  NULL       
   3                                                                      
   3  ISOTROPIC THERMAL FACTOR RESTRAINTS.     COUNT   RMS    WEIGHT      
   3   MAIN-CHAIN BOND REFINED ATOMS  (A**2):  NULL ;  NULL ;  NULL       
   3   MAIN-CHAIN BOND OTHER ATOMS    (A**2):  NULL ;  NULL ;  NULL       
   3   MAIN-CHAIN ANGLE REFINED ATOMS (A**2):  NULL ;  NULL ;  NULL       
   3   MAIN-CHAIN ANGLE OTHER ATOMS   (A**2):  NULL ;  NULL ;  NULL       
   3   SIDE-CHAIN BOND REFINED ATOMS  (A**2):  NULL ;  NULL ;  NULL       
   3   SIDE-CHAIN BOND OTHER ATOMS    (A**2):  NULL ;  NULL ;  NULL       
   3   SIDE-CHAIN ANGLE REFINED ATOMS (A**2):  NULL ;  NULL ;  NULL       
   3   SIDE-CHAIN ANGLE OTHER ATOMS   (A**2):  NULL ;  NULL ;  NULL       
   3   LONG RANGE B REFINED ATOMS     (A**2):  NULL ;  NULL ;  NULL       
   3   LONG RANGE B OTHER ATOMS       (A**2):  NULL ;  NULL ;  NULL       
   3                                                                      
   3 ANISOTROPIC THERMAL FACTOR RESTRAINTS.    COUNT   RMS   WEIGHT       
   3   RIGID-BOND RESTRAINTS          (A**2):  NULL ;  NULL ;  NULL       
   3   SPHERICITY; FREE ATOMS         (A**2):  NULL ;  NULL ;  NULL       
   3   SPHERICITY; BONDED ATOMS       (A**2):  NULL ;  NULL ;  NULL       
   3                                                                      
   3  NCS RESTRAINTS STATISTICS                                           
   3   NUMBER OF DIFFERENT NCS GROUPS : NULL                              
   3                                                                      
   3  TLS DETAILS                                                         
   3   NUMBER OF TLS GROUPS  : NULL                                       
   3                                                                      
   3  BULK SOLVENT MODELLING.                                             
   3   METHOD USED : MASK                                                 
   3   PARAMETERS FOR MASK CALCULATION                                    
   3   VDW PROBE RADIUS   : 1.20                                          
   3   ION PROBE RADIUS   : 0.80                                          
   3   SHRINKAGE RADIUS   : 0.80                                          
   3                                                                      
   3  OTHER REFINEMENT REMARKS: HYDROGENS HAVE BEEN ADDED IN THE RIDING   
   3  POSITIONS U VALUES : REFINED INDIVIDUALLY                           
   4                                                                      
   4 5EEC COMPLIES WITH FORMAT V. 3.30, 13-JUL-11                         
 100                                                                      
 100 THIS ENTRY HAS BEEN PROCESSED BY RCSB ON 26-OCT-15.                  
 100 THE DEPOSITION ID IS D_1000214780.                                   
 200                                                                      
 200 EXPERIMENTAL DETAILS                                                 
 200  EXPERIMENT TYPE                : X-RAY DIFFRACTION                  
 200  DATE OF DATA COLLECTION        : 22-OCT-14                          
 200  TEMPERATURE           (KELVIN) : 100                                
 200  PH                             : 4.5                                
 200  NUMBER OF CRYSTALS USED        : 1                                  
 200                                                                      
 200  SYNCHROTRON              (Y/N) : N                                  
 200  RADIATION SOURCE               : ROTATING ANODE                     
 200  BEAMLINE                       : NULL                               
 200  X-RAY GENERATOR MODEL          : RIGAKU MICROMAX-007                
 200  MONOCHROMATIC OR LAUE    (M/L) : M                                  
 200  WAVELENGTH OR RANGE        (A) : 1.542                              
 200  MONOCHROMATOR                  : CU FILTER                          
 200  OPTICS                         : NULL                               
 200                                                                      
 200  DETECTOR TYPE                  : CCD                                
 200  DETECTOR MANUFACTURER          : RIGAKU SATURN 944+                 
 200  INTENSITY-INTEGRATION SOFTWARE : HKL-2000                           
 200  DATA SCALING SOFTWARE          : SCALEPACK                          
 200                                                                      
 200  NUMBER OF UNIQUE REFLECTIONS   : 39177                              
 200  RESOLUTION RANGE HIGH      (A) : 1.850                              
 200  RESOLUTION RANGE LOW       (A) : 50.000                             
 200  REJECTION CRITERIA  (SIGMA(I)) : NULL                               
 200                                                                      
 200 OVERALL.                                                             
 200  COMPLETENESS FOR RANGE     (%) : 96.7                               
 200  DATA REDUNDANCY                : 2.900                              
 200  R MERGE                    (I) : 0.10700                            
 200  R SYM                      (I) : NULL                               
 200  <I/SIGMA(I)> FOR THE DATA SET  : 9.7000                             
 200                                                                      
 200 IN THE HIGHEST RESOLUTION SHELL.                                     
 200  HIGHEST RESOLUTION SHELL, RANGE HIGH (A) : 1.85                     
 200  HIGHEST RESOLUTION SHELL, RANGE LOW  (A) : 1.92                     
 200  COMPLETENESS FOR SHELL     (%) : 90.2                               
 200  DATA REDUNDANCY IN SHELL       : 2.30                               
 200  R MERGE FOR SHELL          (I) : 0.39300                            
 200  R SYM FOR SHELL            (I) : NULL                               
 200  <I/SIGMA(I)> FOR SHELL         : NULL                               
 200                                                                      
 200 DIFFRACTION PROTOCOL: SINGLE WAVELENGTH                              
 200 METHOD USED TO DETERMINE THE STRUCTURE: NULL                         
 200 SOFTWARE USED: MOLREP                                                
 200 STARTING MODEL: NULL                                                 
 200                                                                      
 200 REMARK: NULL                                                         
 280                                                                      
 280 CRYSTAL                                                              
 280 SOLVENT CONTENT, VS   (%): 44.20                                     
 280 MATTHEWS COEFFICIENT, VM (ANGSTROMS**3/DA): 2.20                     
 280                                                                      
 280 CRYSTALLIZATION CONDITIONS: 30% PEG 8000, 0.2 M LITHIUM SULFATE,     
 280  AND 0.1 M SODIUM ACETATE (PH 4.5) AND 10:1 MOLAR RATIO WITH         
 280  S02030 INHIBITOR, VAPOR DIFFUSION, SITTING DROP, TEMPERATURE 293K   
 290                                                                      
 290 CRYSTALLOGRAPHIC SYMMETRY                                            
 290 SYMMETRY OPERATORS FOR SPACE GROUP: P 1 21 1                         
 290                                                                      
 290      SYMOP   SYMMETRY                                                
 290     NNNMMM   OPERATOR                                                
 290       1555   X,Y,Z                                                   
 290       2555   -X,Y+1/2,-Z                                             
 290                                                                      
 290     WHERE NNN -> OPERATOR NUMBER                                     
 290           MMM -> TRANSLATION VECTOR                                  
 290                                                                      
 290 CRYSTALLOGRAPHIC SYMMETRY TRANSFORMATIONS                            
 290 THE FOLLOWING TRANSFORMATIONS OPERATE ON THE ATOM/HETATM             
 290 RECORDS IN THIS ENTRY TO PRODUCE CRYSTALLOGRAPHICALLY                
 290 RELATED MOLECULES.                                                   
 290   SMTRY1   1  1.000000  0.000000  0.000000        0.00000            
 290   SMTRY2   1  0.000000  1.000000  0.000000        0.00000            
 290   SMTRY3   1  0.000000  0.000000  1.000000        0.00000            
 290   SMTRY1   2 -1.000000  0.000000  0.000000        0.00000            
 290   SMTRY2   2  0.000000  1.000000  0.000000       38.94150            
 290   SMTRY3   2  0.000000  0.000000 -1.000000        0.00000            
 290                                                                      
 290 REMARK: NULL                                                         
 300                                                                      
 300 BIOMOLECULE: 1, 2                                                    
 300 SEE REMARK 350 FOR THE AUTHOR PROVIDED AND/OR PROGRAM                
 300 GENERATED ASSEMBLY INFORMATION FOR THE STRUCTURE IN                  
 300 THIS ENTRY. THE REMARK MAY ALSO PROVIDE INFORMATION ON               
 300 BURIED SURFACE AREA.                                                 
 350                                                                      
 350 COORDINATES FOR A COMPLETE MULTIMER REPRESENTING THE KNOWN           
 350 BIOLOGICALLY SIGNIFICANT OLIGOMERIZATION STATE OF THE                
 350 MOLECULE CAN BE GENERATED BY APPLYING BIOMT TRANSFORMATIONS          
 350 GIVEN BELOW.  BOTH NON-CRYSTALLOGRAPHIC AND                          
 350 CRYSTALLOGRAPHIC OPERATIONS ARE GIVEN.                               
 350                                                                      
 350 BIOMOLECULE: 1                                                       
 350 AUTHOR DETERMINED BIOLOGICAL UNIT: MONOMERIC                         
 350 APPLY THE FOLLOWING TO CHAINS: A                                     
 350   BIOMT1   1  1.000000  0.000000  0.000000        0.00000            
 350   BIOMT2   1  0.000000  1.000000  0.000000        0.00000            
 350   BIOMT3   1  0.000000  0.000000  1.000000        0.00000            
 350                                                                      
 350 BIOMOLECULE: 2                                                       
 350 AUTHOR DETERMINED BIOLOGICAL UNIT: MONOMERIC                         
 350 APPLY THE FOLLOWING TO CHAINS: B                                     
 350   BIOMT1   1  1.000000  0.000000  0.000000        0.00000            
 350   BIOMT2   1  0.000000  1.000000  0.000000        0.00000            
 350   BIOMT3   1  0.000000  0.000000  1.000000        0.00000            
 465                                                                      
 465 MISSING RESIDUES                                                     
 465 THE FOLLOWING RESIDUES WERE NOT LOCATED IN THE                       
 465 EXPERIMENT. (M=MODEL NUMBER; RES=RESIDUE NAME; C=CHAIN               
 465 IDENTIFIER; SSSEQ=SEQUENCE NUMBER; I=INSERTION CODE.)                
 465                                                                      
 465   M RES C SSSEQI                                                     
 465     VAL A   292                                                      
 465     ASN A   293                                                      
 465     GLY A   294                                                      
 465     GLN A   295                                                      
 465     VAL B   292                                                      
 465     ASN B   293                                                      
 465     GLY B   294                                                      
 465     GLN B   295                                                      
 500                                                                      
 500 GEOMETRY AND STEREOCHEMISTRY                                         
 500 SUBTOPIC: CLOSE CONTACTS IN SAME ASYMMETRIC UNIT                     
 500                                                                      
 500 THE FOLLOWING ATOMS ARE IN CLOSE CONTACT.                            
 500                                                                      
 500  ATM1  RES C  SSEQI   ATM2  RES C  SSEQI           DISTANCE          
 500   OG   SER B   109     OD2  ASP B   131              2.16            
 500   OG   SER B    70     O2   ZXM B   301              2.18            
 500                                                                      
 500 REMARK: NULL                                                         
 500                                                                      
 500 GEOMETRY AND STEREOCHEMISTRY                                         
 500 SUBTOPIC: COVALENT BOND LENGTHS                                      
 500                                                                      
 500 THE STEREOCHEMICAL PARAMETERS OF THE FOLLOWING RESIDUES              
 500 HAVE VALUES WHICH DEVIATE FROM EXPECTED VALUES BY MORE               
 500 THAN 6*RMSD (M=MODEL NUMBER; RES=RESIDUE NAME; C=CHAIN               
 500 IDENTIFIER; SSEQ=SEQUENCE NUMBER; I=INSERTION CODE).                 
 500                                                                      
 500 STANDARD TABLE:                                                      
 500 FORMAT: (10X,I3,1X,2(A3,1X,A1,I4,A1,1X,A4,3X),1X,F6.3)               
 500                                                                      
 500 EXPECTED VALUES PROTEIN: ENGH AND HUBER, 1999                        
 500 EXPECTED VALUES NUCLEIC ACID: CLOWNEY ET AL 1996                     
 500                                                                      
 500  M RES CSSEQI ATM1   RES CSSEQI ATM2   DEVIATION                     
 500    VAL A  57   C     SER A  59   N       0.243                       
 500    VAL A  57   C     SER A  59   N       0.193                       
 500    PRO A 252   C     THR A 254   N       0.243                       
 500                                                                      
 500 REMARK: NULL                                                         
 500                                                                      
 500 GEOMETRY AND STEREOCHEMISTRY                                         
 500 SUBTOPIC: COVALENT BOND ANGLES                                       
 500                                                                      
 500 THE STEREOCHEMICAL PARAMETERS OF THE FOLLOWING RESIDUES              
 500 HAVE VALUES WHICH DEVIATE FROM EXPECTED VALUES BY MORE               
 500 THAN 6*RMSD (M=MODEL NUMBER; RES=RESIDUE NAME; C=CHAIN               
 500 IDENTIFIER; SSEQ=SEQUENCE NUMBER; I=INSERTION CODE).                 
 500                                                                      
 500 STANDARD TABLE:                                                      
 500 FORMAT: (10X,I3,1X,A3,1X,A1,I4,A1,3(1X,A4,2X),12X,F5.1)              
 500                                                                      
 500 EXPECTED VALUES PROTEIN: ENGH AND HUBER, 1999                        
 500 EXPECTED VALUES NUCLEIC ACID: CLOWNEY ET AL 1996                     
 500                                                                      
 500  M RES CSSEQI ATM1   ATM2   ATM3                                     
 500    ARG A  83   NE  -  CZ  -  NH1 ANGL. DEV. =   3.3 DEGREES          
 500    PRO A 252   O   -  C   -  N   ANGL. DEV. = -16.3 DEGREES          
 500    LYS A 273   CD  -  CE  -  NZ  ANGL. DEV. = -14.9 DEGREES          
 500    ARG B 204   NE  -  CZ  -  NH1 ANGL. DEV. =   5.2 DEGREES          
 500    ARG B 204   NE  -  CZ  -  NH2 ANGL. DEV. =  -4.2 DEGREES          
 500    PRO B 252   O   -  C   -  N   ANGL. DEV. = -10.2 DEGREES          
 500                                                                      
 500 REMARK: NULL                                                         
 500                                                                      
 500 GEOMETRY AND STEREOCHEMISTRY                                         
 500 SUBTOPIC: TORSION ANGLES                                             
 500                                                                      
 500 TORSION ANGLES OUTSIDE THE EXPECTED RAMACHANDRAN REGIONS:            
 500 (M=MODEL NUMBER; RES=RESIDUE NAME; C=CHAIN IDENTIFIER;               
 500 SSEQ=SEQUENCE NUMBER; I=INSERTION CODE).                             
 500                                                                      
 500 STANDARD TABLE:                                                      
 500 FORMAT:(10X,I3,1X,A3,1X,A1,I4,A1,4X,F7.2,3X,F7.2)                    
 500                                                                      
 500 EXPECTED VALUES: GJ KLEYWEGT AND TA JONES (1996). PHI/PSI-           
 500 CHOLOGY: RAMACHANDRAN REVISITED. STRUCTURE 4, 1395 - 1400            
 500                                                                      
 500  M RES CSSEQI        PSI       PHI                                   
 500    TYR A  60      111.73   -161.66                                   
 500    CYS A  69     -137.93     46.51                                   
 500    ARG A 220     -123.62   -119.85                                   
 500    CYS B  69     -141.43     52.75                                   
 500    ARG B 220     -117.28   -114.75                                   
 500    THR B 254      108.23    -27.15                                   
 500                                                                      
 500 REMARK: NULL                                                         
 500                                                                      
 500 GEOMETRY AND STEREOCHEMISTRY                                         
 500 SUBTOPIC: MAIN CHAIN PLANARITY                                       
 500                                                                      
 500 THE FOLLOWING RESIDUES HAVE A PSEUDO PLANARITY                       
 500 TORSION ANGLE, C(I) - CA(I) - N(I+1) - O(I), GREATER                 
 500 10.0 DEGREES. (M=MODEL NUMBER; RES=RESIDUE NAME;                     
 500 C=CHAIN IDENTIFIER; SSEQ=SEQUENCE NUMBER;                            
 500 I=INSERTION CODE).                                                   
 500                                                                      
 500  M RES CSSEQI        ANGLE                                           
 500    PRO A 252         22.54                                           
 500                                                                      
 500 REMARK: NULL                                                         
 525                                                                      
 525 SOLVENT                                                              
 525                                                                      
 525 THE SOLVENT MOLECULES HAVE CHAIN IDENTIFIERS THAT                    
 525 INDICATE THE POLYMER CHAIN WITH WHICH THEY ARE MOST                  
 525 CLOSELY ASSOCIATED. THE REMARK LISTS ALL THE SOLVENT                 
 525 MOLECULES WHICH ARE MORE THAN 5A AWAY FROM THE                       
 525 NEAREST POLYMER CHAIN (M = MODEL NUMBER;                             
 525 RES=RESIDUE NAME; C=CHAIN IDENTIFIER; SSEQ=SEQUENCE                  
 525 NUMBER; I=INSERTION CODE):                                           
 525                                                                      
 525  M RES CSSEQI                                                        
 525    HOH A 603        DISTANCE =  5.94 ANGSTROMS                       
 800                                                                      
 800 SITE                                                                 
 800 SITE_IDENTIFIER: AC1                                                 
 800 EVIDENCE_CODE: SOFTWARE                                              
 800 SITE_DESCRIPTION: binding site for residue ZXM A 301                 
 800                                                                      
 800 SITE_IDENTIFIER: AC2                                                 
 800 EVIDENCE_CODE: SOFTWARE                                              
 800 SITE_DESCRIPTION: binding site for residue SO4 A 302                 
 800                                                                      
 800 SITE_IDENTIFIER: AC3                                                 
 800 EVIDENCE_CODE: SOFTWARE                                              
 800 SITE_DESCRIPTION: binding site for residue SO4 A 303                 
 800                                                                      
 800 SITE_IDENTIFIER: AC4                                                 
 800 EVIDENCE_CODE: SOFTWARE                                              
 800 SITE_DESCRIPTION: binding site for residue SO4 A 304                 
 800                                                                      
 800 SITE_IDENTIFIER: AC5                                                 
 800 EVIDENCE_CODE: SOFTWARE                                              
 800 SITE_DESCRIPTION: binding site for residue SO4 B 303                 
 800                                                                      
 800 SITE_IDENTIFIER: AC6                                                 
 800 EVIDENCE_CODE: SOFTWARE                                              
 800 SITE_DESCRIPTION: binding site for residue SO4 B 304                 
 900                                                                      
 900 RELATED ENTRIES                                                      
 900 RELATED ID: 5EE8   RELATED DB: PDB                                   

>  <DBREF>
 5EEC A   25   295  UNP    Q9F663   BLKPC_KLEPN     25    293             
 5EEC B   25   295  UNP    Q9F663   BLKPC_KLEPN     25    293             

>  <SEQRES>
   1 A  269  LEU THR ASN LEU VAL ALA GLU PRO PHE ALA LYS LEU GLU          
   2 A  269  GLN ASP PHE GLY GLY SER ILE GLY VAL TYR ALA MET ASP          
   3 A  269  THR GLY SER GLY ALA THR VAL SER TYR ARG ALA GLU GLU          
   4 A  269  ARG PHE PRO LEU CYS SER SER PHE LYS GLY PHE LEU ALA          
   5 A  269  ALA ALA VAL LEU ALA ARG SER GLN GLN GLN ALA GLY LEU          
   6 A  269  LEU ASP THR PRO ILE ARG TYR GLY LYS ASN ALA LEU VAL          
   7 A  269  PRO TRP SER PRO ILE SER GLU LYS TYR LEU THR THR GLY          
   8 A  269  MET THR VAL ALA GLU LEU SER ALA ALA ALA VAL GLN TYR          
   9 A  269  SER ASP ASN ALA ALA ALA ASN LEU LEU LEU LYS GLU LEU          
  10 A  269  GLY GLY PRO ALA GLY LEU THR ALA PHE MET ARG SER ILE          
  11 A  269  GLY ASP THR THR PHE ARG LEU ASP ARG TRP GLU LEU GLU          
  12 A  269  LEU ASN SER ALA ILE PRO GLY ASP ALA ARG ASP THR SER          
  13 A  269  SER PRO ARG ALA VAL THR GLU SER LEU GLN LYS LEU THR          
  14 A  269  LEU GLY SER ALA LEU ALA ALA PRO GLN ARG GLN GLN PHE          
  15 A  269  VAL ASP TRP LEU LYS GLY ASN THR THR GLY ASN HIS ARG          
  16 A  269  ILE ARG ALA ALA VAL PRO ALA ASP TRP ALA VAL GLY ASP          
  17 A  269  LYS THR GLY THR CYS GLY VAL TYR GLY THR ALA ASN ASP          
  18 A  269  TYR ALA VAL VAL TRP PRO THR GLY ARG ALA PRO ILE VAL          
  19 A  269  LEU ALA VAL TYR THR ARG ALA PRO ASN LYS ASP ASP LYS          
  20 A  269  HIS SER GLU ALA VAL ILE ALA ALA ALA ALA ARG LEU ALA          
  21 A  269  LEU GLU GLY LEU GLY VAL ASN GLY GLN                          
   1 B  269  LEU THR ASN LEU VAL ALA GLU PRO PHE ALA LYS LEU GLU          
   2 B  269  GLN ASP PHE GLY GLY SER ILE GLY VAL TYR ALA MET ASP          
   3 B  269  THR GLY SER GLY ALA THR VAL SER TYR ARG ALA GLU GLU          
   4 B  269  ARG PHE PRO LEU CYS SER SER PHE LYS GLY PHE LEU ALA          
   5 B  269  ALA ALA VAL LEU ALA ARG SER GLN GLN GLN ALA GLY LEU          
   6 B  269  LEU ASP THR PRO ILE ARG TYR GLY LYS ASN ALA LEU VAL          
   7 B  269  PRO TRP SER PRO ILE SER GLU LYS TYR LEU THR THR GLY          
   8 B  269  MET THR VAL ALA GLU LEU SER ALA ALA ALA VAL GLN TYR          
   9 B  269  SER ASP ASN ALA ALA ALA ASN LEU LEU LEU LYS GLU LEU          
  10 B  269  GLY GLY PRO ALA GLY LEU THR ALA PHE MET ARG SER ILE          
  11 B  269  GLY ASP THR THR PHE ARG LEU ASP ARG TRP GLU LEU GLU          
  12 B  269  LEU ASN SER ALA ILE PRO GLY ASP ALA ARG ASP THR SER          
  13 B  269  SER PRO ARG ALA VAL THR GLU SER LEU GLN LYS LEU THR          
  14 B  269  LEU GLY SER ALA LEU ALA ALA PRO GLN ARG GLN GLN PHE          
  15 B  269  VAL ASP TRP LEU LYS GLY ASN THR THR GLY ASN HIS ARG          
  16 B  269  ILE ARG ALA ALA VAL PRO ALA ASP TRP ALA VAL GLY ASP          
  17 B  269  LYS THR GLY THR CYS GLY VAL TYR GLY THR ALA ASN ASP          
  18 B  269  TYR ALA VAL VAL TRP PRO THR GLY ARG ALA PRO ILE VAL          
  19 B  269  LEU ALA VAL TYR THR ARG ALA PRO ASN LYS ASP ASP LYS          
  20 B  269  HIS SER GLU ALA VAL ILE ALA ALA ALA ALA ARG LEU ALA          
  21 B  269  LEU GLU GLY LEU GLY VAL ASN GLY GLN                          

>  <HET>
 ZXM  A 301      31                                                       
 SO4  A 302       5                                                       
 SO4  A 303       5                                                       
 SO4  A 304       5                                                       
 ZXM  B 301      22                                                       
 SO4  B 302       5                                                       
 SO4  B 303       5                                                       
 SO4  B 304       5                                                       

>  <HETNAM>
     ZXM 1-{(2R)-2-(DIHYDROXYBORANYL)-2-[(THIOPHEN-2-YLACETYL)            
   2 ZXM  AMINO]ETHYL}-1H-1,2,3-TRIAZOLE-4-CARBOXYLIC ACID                
     SO4 SULFATE ION                                                      

>  <FORMUL>
   3  ZXM    2(C11 H13 B N4 O5 S)                                         
   4  SO4    6(O4 S 2-)                                                   
  11  HOH   *419(H2 O)                                                    

>  <HELIX>
   1 AA1 VAL A   29  GLY A   41  1                                  13    
   2 AA2 SER A   71  GLN A   85  1                                  15    
   3 AA3 GLY A   98  LEU A  102  5                                   5    
   4 AA4 SER A  106  TYR A  112  1                                   7    
   5 AA5 VAL A  119  SER A  130  1                                  12    
   6 AA6 ASP A  131  LEU A  142  1                                  12    
   7 AA7 GLY A  143  ILE A  155  1                                  13    
   8 AA8 LEU A  167  SER A  171  5                                   5    
   9 AA9 SER A  182  LEU A  195  1                                  14    
  10 AB1 ALA A  200  GLY A  213  1                                  14    
  11 AB2 ARG A  220  VAL A  225  5                                   6    
  12 AB3 SER A  275  LEU A  290  1                                  16    
  13 AB4 VAL B   29  GLY B   41  1                                  13    
  14 AB5 SER B   71  GLN B   85  1                                  15    
  15 AB6 GLY B   98  LEU B  102  5                                   5    
  16 AB7 ILE B  108  LEU B  113  5                                   6    
  17 AB8 VAL B  119  TYR B  129  1                                  11    
  18 AB9 ASP B  131  GLY B  143  1                                  13    
  19 AC1 GLY B  143  ILE B  155  1                                  13    
  20 AC2 LEU B  167  SER B  171  5                                   5    
  21 AC3 SER B  182  LEU B  195  1                                  14    
  22 AC4 ALA B  200  GLY B  213  1                                  14    
  23 AC5 ARG B  220  VAL B  225  1                                   6    
  24 AC6 SER B  275  LEU B  290  1                                  16    

>  <SHEET>
   1 AA1 5 THR A  56  TYR A  60  0                                        
   2 AA1 5 SER A  43  ASP A  50 -1  N  VAL A  46   O  TYR A  60           
   3 AA1 5 ILE A 259  ARG A 266 -1  O  TYR A 264   N  GLY A  45           
   4 AA1 5 ALA A 244  TRP A 251 -1  N  VAL A 250   O  ILE A 259           
   5 AA1 5 ALA A 230  THR A 237 -1  N  ALA A 230   O  TRP A 251           
   1 AA2 2 PHE A  66  PRO A  67  0                                        
   2 AA2 2 THR A 180  SER A 181 -1  O  SER A 181   N  PHE A  66           
   1 AA3 2 PRO A  94  ILE A  95  0                                        
   2 AA3 2 MET A 117  THR A 118 -1  O  MET A 117   N  ILE A  95           
   1 AA4 5 THR B  56  TYR B  60  0                                        
   2 AA4 5 SER B  43  ASP B  50 -1  N  VAL B  46   O  TYR B  60           
   3 AA4 5 ILE B 259  ARG B 266 -1  O  TYR B 264   N  GLY B  45           
   4 AA4 5 ALA B 244  TRP B 251 -1  N  VAL B 250   O  ILE B 259           
   5 AA4 5 ALA B 230  THR B 237 -1  N  GLY B 236   O  ASN B 245           
   1 AA5 2 PHE B  66  PRO B  67  0                                        
   2 AA5 2 THR B 180  SER B 181 -1  O  SER B 181   N  PHE B  66           
   1 AA6 2 PRO B  94  ILE B  95  0                                        
   2 AA6 2 MET B 117  THR B 118 -1  O  MET B 117   N  ILE B  95           

>  <SSBOND>
   1 CYS A   69    CYS A  238                          1555   1555  2.05  
   2 CYS B   69    CYS B  238                          1555   1555  2.04  

>  <LINK>
       OG  SER A  70                 B1  ZXM A 301     1555   1555  1.54  
       OG  SER B  70                 B1  ZXM B 301     1555   1555  1.54  
       C19 ZXM B 301                 O1  SO4 B 302     1555   1555  1.24  
       C19 ZXM B 301                 O2  SO4 B 302     1555   1555  1.31  
       C20 ZXM B 301                 O1  SO4 B 302     1555   1555  1.49  
       C20 ZXM B 301                 S   SO4 B 302     1555   1555  1.95  
       C21 ZXM B 301                 O3  SO4 B 302     1555   1555  1.43  
       C21 ZXM B 301                 O4  SO4 B 302     1555   1555  1.27  
       O22 ZXM B 301                 S   SO4 B 302     1555   1555  1.59  

>  <CISPEP>
   1 GLU A  166    LEU A  167          0         6.62                     
   2 GLU B  166    LEU B  167          0        12.44                     
   3 LEU B  290    GLY B  291          0        -9.80                     

>  <SITE>
   1 AC1 17 CYS A  69  SER A  70  TRP A 105  SER A 130                    
   2 AC1 17 ASN A 132  GLU A 166  LEU A 167  LEU A 169                    
   3 AC1 17 ASN A 170  THR A 235  THR A 237  CYS A 238                    
   4 AC1 17 GLY A 239  SO4 A 304  HOH A 401  HOH A 411                    
   5 AC1 17 LYS B 140                                                     
   1 AC2  6 SER A  59  ARG A  61  ALA A  62  GLU A  63                    
   2 AC2  6 HOH A 408  HOH A 516                                          
   1 AC3  5 SER A 275  GLU A 276  ALA A 277  HOH A 508                    
   2 AC3  5 HOH A 515                                                     
   1 AC4  5 ARG A 220  HIS A 274  GLU A 276  ZXM A 301                    
   2 AC4  5 HOH A 411                                                     
   1 AC5  6 SER B 275  GLU B 276  ALA B 277  HOH B 403                    
   2 AC5  6 HOH B 432  HOH B 486                                          
   1 AC6  7 SER B  43  ARG B  61  HOH B 405  HOH B 423                    
   2 AC6  7 HOH B 479  HOH B 509  HOH B 516                               

>  <ORIGX1>
      1.000000  0.000000  0.000000        0.00000                         

>  <ORIGX2>
      0.000000  1.000000  0.000000        0.00000                         

>  <ORIGX3>
      0.000000  0.000000  1.000000        0.00000                         

>  <SCALE1>
      0.019285  0.000000  0.006517        0.00000                         

>  <SCALE2>
      0.000000  0.012840  0.000000        0.00000                         

>  <SCALE3>
      0.000000  0.000000  0.016296        0.00000                         

>  <MASTER>
      382    0    8   24   18    0   15    6 4451    2   92   42          

$$$$
