start_structures/Ligand_Substrate/Ligand_Complex_Stripped/ZXQ_7TI0.pdb
 OpenBabel08222315203D

 27 28  0  0  1  0  0  0  0  0999 V2000
   39.6670   37.2880   14.2620 N   0  0  0  0  0  0  0  0  0  0  0  0
   39.8760   38.5040   13.4550 C   0  0  2  0  0  0  0  0  0  0  0  0
   41.3110   38.7010   12.9710 C   0  0  0  0  0  0  0  0  0  0  0  0
   41.5580   39.6390   12.2100 O   0  0  0  0  0  0  0  0  0  0  0  0
   39.4260   39.7320   14.2170 C   0  0  0  0  0  0  0  0  0  0  0  0
   38.0460   39.7370   14.5920 O   0  0  0  0  0  0  0  0  0  0  0  0
   33.4850   38.7990   16.6570 O   0  0  0  0  0  0  0  0  0  0  0  0
   34.3250   38.5220   17.5090 C   0  0  0  0  0  0  0  0  0  0  0  0
   33.9120   37.5830   18.7030 C   0  0  0  0  0  0  0  0  0  0  0  0
   32.9120   36.4230   18.3330 C   0  0  0  0  0  0  0  0  0  0  0  0
   32.1480   36.3440   17.1700 C   0  0  0  0  0  0  0  0  0  0  0  0
   31.3130   35.2230   17.0310 C   0  0  0  0  0  0  0  0  0  0  0  0
   31.4110   34.3940   18.0570 C   0  0  0  0  0  0  0  0  0  0  0  0
   32.4640   34.9420   19.2690 S   0  0  0  0  0  0  0  0  0  0  0  0
   35.5920   38.9650   17.4380 N   0  0  0  0  0  0  0  0  0  0  0  0
   36.2500   39.8200   16.4670 C   0  0  1  0  0  0  0  0  0  0  0  0
   35.7540   41.2640   16.3800 C   0  0  0  0  0  0  0  0  0  0  0  0
   36.0430   41.9120   17.7510 C   0  0  0  0  0  0  0  0  0  0  0  0
   37.1820   41.8120   18.4630 C   0  0  0  0  0  0  0  0  0  0  0  0
   37.7420   39.6990   16.0560 B   0  0  1  0  0  0  0  0  0  0  0  0
   38.2290   38.3470   16.4620 O   0  0  0  0  0  0  0  0  0  0  0  0
   38.5320   40.7120   16.6410 O   0  0  0  0  0  0  0  0  0  0  0  0
   38.4380   41.1880   17.9490 C   0  0  1  0  0  0  0  0  0  0  0  0
   39.7430   41.5330   18.4900 C   0  0  0  0  0  0  0  0  0  0  0  0
   40.0520   41.5440   19.9510 C   0  0  0  0  0  0  0  0  0  0  0  0
   39.2470   41.0250   20.7460 O   0  0  0  0  0  0  0  0  0  0  0  0
   41.0620   42.1880   20.2620 O   0  0  0  0  0  0  0  0  0  0  0  0
  2  5  1  0  0  0  0
  2  1  1  1  0  0  0
  3  2  1  0  0  0  0
  4  3  2  0  0  0  0
  5  6  1  0  0  0  0
  6 20  1  0  0  0  0
  7  8  2  0  0  0  0
  8  9  1  0  0  0  0
  8 15  1  0  0  0  0
  9 10  1  0  0  0  0
 10 11  2  0  0  0  0
 10 14  1  0  0  0  0
 11 12  1  0  0  0  0
 12 13  2  0  0  0  0
 13 14  1  0  0  0  0
 16 15  1  1  0  0  0
 16 17  1  0  0  0  0
 16 20  1  0  0  0  0
 17 18  1  0  0  0  0
 18 19  2  0  0  0  0
 19 23  1  0  0  0  0
 20 21  1  1  0  0  0
 20 22  1  0  0  0  0
 22 23  1  0  0  0  0
 23 24  1  6  0  0  0
 24 25  1  0  0  0  0
 25 26  2  0  0  0  0
 25 27  1  0  0  0  0
M  END
>  <HEADER>
    HYDROLASE                               12-JAN-22   7TI0              

>  <TITLE>
    STRUCTURE OF CTX-M-15 BOUND TO RPX-7063 AT 1.5A                       

>  <COMPND>
    MOL_ID: 1;                                                            
   2 MOLECULE: BETA-LACTAMASE;                                            
   3 CHAIN: A;                                                            
   4 EC: 3.5.2.6;                                                         
   5 ENGINEERED: YES                                                      

>  <SOURCE>
    MOL_ID: 1;                                                            
   2 ORGANISM_SCIENTIFIC: KLEBSIELLA PNEUMONIAE;                          
   3 ORGANISM_TAXID: 573;                                                 
   4 GENE: BLACTX-M-15, BLA_1, BLA_10, BLA_2, BLA_3, BLACTX-M, CTX-M,     
   5 CTX-M-15, CTX-M-15;                                                  
   6 EXPRESSION_SYSTEM: ESCHERICHIA COLI;                                 
   7 EXPRESSION_SYSTEM_TAXID: 562;                                        
   8 EXPRESSION_SYSTEM_VECTOR_TYPE: PLASMID                               

>  <KEYWDS>
    CTX-M-15, ANTIBIOTIC, HYDROLASE                                       

>  <EXPDTA>
    X-RAY DIFFRACTION                                                     

>  <AUTHOR>
    M.C.CLIFTON,J.ABENDROTH,S.J.HECKER,T.E.EDWARDS                        

>  <REVDAT>
   1   18-MAY-22 7TI0    0                                                

>  <JRNL>
      AUTH   K.R.REDDY,M.TOTROV,O.LOMOVSKAYA,D.C.GRIFFITH,Z.TARAZI,       
      AUTH 2 M.C.CLIFTON,S.J.HECKER                                       
      TITL   BROAD-SPECTRUM CYCLIC BORONATE BETA-LACTAMASE INHIBITORS     
      TITL 2 FEATURING AN INTRAMOLECULAR PRODRUG FOR ORAL                 
      TITL 3 BIOAVAILABILITY.                                             
      REF    BIOORG.MED.CHEM.              V.  62 16722 2022              
      REFN                   ESSN 1464-3391                               
      PMID   35358864                                                     
      DOI    10.1016/J.BMC.2022.116722                                    

>  <REMARK>
   2                                                                      
   2 RESOLUTION.    1.50 ANGSTROMS.                                       
   3                                                                      
   3 REFINEMENT.                                                          
   3   PROGRAM     : REFMAC 5.6.0117                                      
   3   AUTHORS     : MURSHUDOV,SKUBAK,LEBEDEV,PANNU,STEINER,              
   3               : NICHOLLS,WINN,LONG,VAGIN                             
   3                                                                      
   3    REFINEMENT TARGET : MAXIMUM LIKELIHOOD                            
   3                                                                      
   3  DATA USED IN REFINEMENT.                                            
   3   RESOLUTION RANGE HIGH (ANGSTROMS) : 1.50                           
   3   RESOLUTION RANGE LOW  (ANGSTROMS) : 50.00                          
   3   DATA CUTOFF            (SIGMA(F)) : 0.000                          
   3   COMPLETENESS FOR RANGE        (%) : 99.2                           
   3   NUMBER OF REFLECTIONS             : 39211                          
   3                                                                      
   3  FIT TO DATA USED IN REFINEMENT.                                     
   3   CROSS-VALIDATION METHOD          : THROUGHOUT                      
   3   FREE R VALUE TEST SET SELECTION  : RANDOM                          
   3   R VALUE     (WORKING + TEST SET) : 0.160                           
   3   R VALUE            (WORKING SET) : 0.160                           
   3   FREE R VALUE                     : 0.178                           
   3   FREE R VALUE TEST SET SIZE   (%) : 5.000                           
   3   FREE R VALUE TEST SET COUNT      : 1965                            
   3                                                                      
   3  FIT IN THE HIGHEST RESOLUTION BIN.                                  
   3   TOTAL NUMBER OF BINS USED           : 20                           
   3   BIN RESOLUTION RANGE HIGH       (A) : 1.50                         
   3   BIN RESOLUTION RANGE LOW        (A) : 1.54                         
   3   REFLECTION IN BIN     (WORKING SET) : 2525                         
   3   BIN COMPLETENESS (WORKING+TEST) (%) : 98.99                        
   3   BIN R VALUE           (WORKING SET) : 0.1850                       
   3   BIN FREE R VALUE SET COUNT          : 126                          
   3   BIN FREE R VALUE                    : 0.2130                       
   3                                                                      
   3  NUMBER OF NON-HYDROGEN ATOMS USED IN REFINEMENT.                    
   3   PROTEIN ATOMS            : 1927                                    
   3   NUCLEIC ACID ATOMS       : 0                                       
   3   HETEROGEN ATOMS          : 36                                      
   3   SOLVENT ATOMS            : 293                                     
   3                                                                      
   3  B VALUES.                                                           
   3   FROM WILSON PLOT           (A**2) : 12.64                          
   3   MEAN B VALUE      (OVERALL, A**2) : 7.31                           
   3   OVERALL ANISOTROPIC B VALUE.                                       
   3    B11 (A**2) : -0.03000                                             
   3    B22 (A**2) : 0.35000                                              
   3    B33 (A**2) : -0.32000                                             
   3    B12 (A**2) : 0.00000                                              
   3    B13 (A**2) : 0.00000                                              
   3    B23 (A**2) : 0.00000                                              
   3                                                                      
   3  ESTIMATED OVERALL COORDINATE ERROR.                                 
   3   ESU BASED ON R VALUE                            (A): 0.069         
   3   ESU BASED ON FREE R VALUE                       (A): 0.067         
   3   ESU BASED ON MAXIMUM LIKELIHOOD                 (A): 0.038         
   3   ESU FOR B VALUES BASED ON MAXIMUM LIKELIHOOD (A**2): 1.975         
   3                                                                      
   3 CORRELATION COEFFICIENTS.                                            
   3   CORRELATION COEFFICIENT FO-FC      : 0.954                         
   3   CORRELATION COEFFICIENT FO-FC FREE : 0.936                         
   3                                                                      
   3  RMS DEVIATIONS FROM IDEAL VALUES        COUNT    RMS    WEIGHT      
   3   BOND LENGTHS REFINED ATOMS        (A):  2000 ; 0.014 ; 0.019       
   3   BOND LENGTHS OTHERS               (A):  1327 ; 0.001 ; 0.020       
   3   BOND ANGLES REFINED ATOMS   (DEGREES):  2722 ; 1.858 ; 1.983       
   3   BOND ANGLES OTHERS          (DEGREES):  3253 ; 1.520 ; 3.000       
   3   TORSION ANGLES, PERIOD 1    (DEGREES):   263 ; 5.826 ; 5.000       
   3   TORSION ANGLES, PERIOD 2    (DEGREES):    77 ;36.949 ;24.286       
   3   TORSION ANGLES, PERIOD 3    (DEGREES):   329 ;10.838 ;15.000       
   3   TORSION ANGLES, PERIOD 4    (DEGREES):    15 ; 8.124 ;15.000       
   3   CHIRAL-CENTER RESTRAINTS       (A**3):   323 ; 0.340 ; 0.200       
   3   GENERAL PLANES REFINED ATOMS      (A):  2237 ; 0.009 ; 0.021       
   3   GENERAL PLANES OTHERS             (A):   378 ; 0.003 ; 0.020       
   3   NON-BONDED CONTACTS REFINED ATOMS (A):  NULL ;  NULL ;  NULL       
   3   NON-BONDED CONTACTS OTHERS        (A):  NULL ;  NULL ;  NULL       
   3   NON-BONDED TORSION REFINED ATOMS  (A):  NULL ;  NULL ;  NULL       
   3   NON-BONDED TORSION OTHERS         (A):  NULL ;  NULL ;  NULL       
   3   H-BOND (X...Y) REFINED ATOMS      (A):  NULL ;  NULL ;  NULL       
   3   H-BOND (X...Y) OTHERS             (A):  NULL ;  NULL ;  NULL       
   3   POTENTIAL METAL-ION REFINED ATOMS (A):  NULL ;  NULL ;  NULL       
   3   POTENTIAL METAL-ION OTHERS        (A):  NULL ;  NULL ;  NULL       
   3   SYMMETRY VDW REFINED ATOMS        (A):  NULL ;  NULL ;  NULL       
   3   SYMMETRY VDW OTHERS               (A):  NULL ;  NULL ;  NULL       
   3   SYMMETRY H-BOND REFINED ATOMS     (A):  NULL ;  NULL ;  NULL       
   3   SYMMETRY H-BOND OTHERS            (A):  NULL ;  NULL ;  NULL       
   3   SYMMETRY METAL-ION REFINED ATOMS  (A):  NULL ;  NULL ;  NULL       
   3   SYMMETRY METAL-ION OTHERS         (A):  NULL ;  NULL ;  NULL       
   3                                                                      
   3  ISOTROPIC THERMAL FACTOR RESTRAINTS.     COUNT   RMS    WEIGHT      
   3   MAIN-CHAIN BOND REFINED ATOMS  (A**2):  NULL ;  NULL ;  NULL       
   3   MAIN-CHAIN BOND OTHER ATOMS    (A**2):  NULL ;  NULL ;  NULL       
   3   MAIN-CHAIN ANGLE REFINED ATOMS (A**2):  NULL ;  NULL ;  NULL       
   3   MAIN-CHAIN ANGLE OTHER ATOMS   (A**2):  NULL ;  NULL ;  NULL       
   3   SIDE-CHAIN BOND REFINED ATOMS  (A**2):  NULL ;  NULL ;  NULL       
   3   SIDE-CHAIN BOND OTHER ATOMS    (A**2):  NULL ;  NULL ;  NULL       
   3   SIDE-CHAIN ANGLE REFINED ATOMS (A**2):  NULL ;  NULL ;  NULL       
   3   SIDE-CHAIN ANGLE OTHER ATOMS   (A**2):  NULL ;  NULL ;  NULL       
   3   LONG RANGE B REFINED ATOMS     (A**2):  NULL ;  NULL ;  NULL       
   3   LONG RANGE B OTHER ATOMS       (A**2):  NULL ;  NULL ;  NULL       
   3                                                                      
   3 ANISOTROPIC THERMAL FACTOR RESTRAINTS.    COUNT   RMS   WEIGHT       
   3   RIGID-BOND RESTRAINTS          (A**2):  NULL ;  NULL ;  NULL       
   3   SPHERICITY; FREE ATOMS         (A**2):  NULL ;  NULL ;  NULL       
   3   SPHERICITY; BONDED ATOMS       (A**2):  NULL ;  NULL ;  NULL       
   3                                                                      
   3  NCS RESTRAINTS STATISTICS                                           
   3   NUMBER OF DIFFERENT NCS GROUPS : NULL                              
   3                                                                      
   3  TLS DETAILS                                                         
   3   NUMBER OF TLS GROUPS  : 1                                          
   3                                                                      
   3   TLS GROUP : 1                                                      
   3    NUMBER OF COMPONENTS GROUP : 1                                    
   3    COMPONENTS        C SSSEQI   TO  C SSSEQI                         
   3    RESIDUE RANGE :   A     1        A   263                          
   3    ORIGIN FOR THE GROUP (A):  45.4793  38.8027  12.2183              
   3    T TENSOR                                                          
   3      T11:   0.0161 T22:   0.0051                                     
   3      T33:   0.0020 T12:  -0.0033                                     
   3      T13:   0.0042 T23:  -0.0009                                     
   3    L TENSOR                                                          
   3      L11:   0.8703 L22:   0.4021                                     
   3      L33:   0.3679 L12:  -0.0370                                     
   3      L13:   0.0225 L23:  -0.0251                                     
   3    S TENSOR                                                          
   3      S11:   0.0007 S12:  -0.0355 S13:   0.0206                       
   3      S21:  -0.0080 S22:  -0.0039 S23:  -0.0137                       
   3      S31:   0.0025 S32:   0.0103 S33:   0.0033                       
   3                                                                      
   3  BULK SOLVENT MODELLING.                                             
   3   METHOD USED : MASK                                                 
   3   PARAMETERS FOR MASK CALCULATION                                    
   3   VDW PROBE RADIUS   : 1.20                                          
   3   ION PROBE RADIUS   : 0.80                                          
   3   SHRINKAGE RADIUS   : 0.80                                          
   3                                                                      
   3  OTHER REFINEMENT REMARKS: U VALUES      : WITH TLS ADDED            
   3   HYDROGENS HAVE BEEN ADDED IN THE RIDING POSITIONS                  
   4                                                                      
   4 7TI0 COMPLIES WITH FORMAT V. 3.30, 13-JUL-11                         
 100                                                                      
 100 THIS ENTRY HAS BEEN PROCESSED BY RCSB ON 13-JAN-22.                  
 100 THE DEPOSITION ID IS D_1000262339.                                   
 200                                                                      
 200 EXPERIMENTAL DETAILS                                                 
 200  EXPERIMENT TYPE                : X-RAY DIFFRACTION                  
 200  DATE OF DATA COLLECTION        : 13-NOV-11                          
 200  TEMPERATURE           (KELVIN) : 100                                
 200  PH                             : 7.0                                
 200  NUMBER OF CRYSTALS USED        : 1                                  
 200                                                                      
 200  SYNCHROTRON              (Y/N) : Y                                  
 200  RADIATION SOURCE               : ALS                                
 200  BEAMLINE                       : 5.0.3                              
 200  X-RAY GENERATOR MODEL          : NULL                               
 200  MONOCHROMATIC OR LAUE    (M/L) : M                                  
 200  WAVELENGTH OR RANGE        (A) : 0.9765                             
 200  MONOCHROMATOR                  : ASYMMETRIC CURVED CRYSTAL          
 200  OPTICS                         : NULL                               
 200                                                                      
 200  DETECTOR TYPE                  : CCD                                
 200  DETECTOR MANUFACTURER          : ADSC QUANTUM 315                   
 200  INTENSITY-INTEGRATION SOFTWARE : XDS                                
 200  DATA SCALING SOFTWARE          : XSCALE                             
 200                                                                      
 200  NUMBER OF UNIQUE REFLECTIONS   : 39211                              
 200  RESOLUTION RANGE HIGH      (A) : 1.500                              
 200  RESOLUTION RANGE LOW       (A) : 50.000                             
 200  REJECTION CRITERIA  (SIGMA(I)) : -3.000                             
 200                                                                      
 200 OVERALL.                                                             
 200  COMPLETENESS FOR RANGE     (%) : 99.2                               
 200  DATA REDUNDANCY                : 3.970                              
 200  R MERGE                    (I) : 0.06000                            
 200  R SYM                      (I) : NULL                               
 200  <I/SIGMA(I)> FOR THE DATA SET  : 18.7900                            
 200                                                                      
 200 IN THE HIGHEST RESOLUTION SHELL.                                     
 200  HIGHEST RESOLUTION SHELL, RANGE HIGH (A) : 1.50                     
 200  HIGHEST RESOLUTION SHELL, RANGE LOW  (A) : 1.54                     
 200  COMPLETENESS FOR SHELL     (%) : 99.3                               
 200  DATA REDUNDANCY IN SHELL       : 3.87                               
 200  R MERGE FOR SHELL          (I) : 0.22900                            
 200  R SYM FOR SHELL            (I) : NULL                               
 200  <I/SIGMA(I)> FOR SHELL         : 6.100                              
 200                                                                      
 200 DIFFRACTION PROTOCOL: SINGLE WAVELENGTH                              
 200 METHOD USED TO DETERMINE THE STRUCTURE: MOLECULAR REPLACEMENT        
 200 SOFTWARE USED: PHASER                                                
 200 STARTING MODEL: PDB ENTRY 1YMS                                       
 200                                                                      
 200 REMARK: NULL                                                         
 280                                                                      
 280 CRYSTAL                                                              
 280 SOLVENT CONTENT, VS   (%): 42.34                                     
 280 MATTHEWS COEFFICIENT, VM (ANGSTROMS**3/DA): 2.13                     
 280                                                                      
 280 CRYSTALLIZATION CONDITIONS: 0.1M BIS-TRIS PROPANE PH 7.0, 2.3M       
 280  AMMONIUM SULFATE, VAPOR DIFFUSION, SITTING DROP, TEMPERATURE 298K   
 290                                                                      
 290 CRYSTALLOGRAPHIC SYMMETRY                                            
 290 SYMMETRY OPERATORS FOR SPACE GROUP: P 21 21 21                       
 290                                                                      
 290      SYMOP   SYMMETRY                                                
 290     NNNMMM   OPERATOR                                                
 290       1555   X,Y,Z                                                   
 290       2555   -X+1/2,-Y,Z+1/2                                         
 290       3555   -X,Y+1/2,-Z+1/2                                         
 290       4555   X+1/2,-Y+1/2,-Z                                         
 290                                                                      
 290     WHERE NNN -> OPERATOR NUMBER                                     
 290           MMM -> TRANSLATION VECTOR                                  
 290                                                                      
 290 CRYSTALLOGRAPHIC SYMMETRY TRANSFORMATIONS                            
 290 THE FOLLOWING TRANSFORMATIONS OPERATE ON THE ATOM/HETATM             
 290 RECORDS IN THIS ENTRY TO PRODUCE CRYSTALLOGRAPHICALLY                
 290 RELATED MOLECULES.                                                   
 290   SMTRY1   1  1.000000  0.000000  0.000000        0.00000            
 290   SMTRY2   1  0.000000  1.000000  0.000000        0.00000            
 290   SMTRY3   1  0.000000  0.000000  1.000000        0.00000            
 290   SMTRY1   2 -1.000000  0.000000  0.000000       22.94000            
 290   SMTRY2   2  0.000000 -1.000000  0.000000        0.00000            
 290   SMTRY3   2  0.000000  0.000000  1.000000       58.59500            
 290   SMTRY1   3 -1.000000  0.000000  0.000000        0.00000            
 290   SMTRY2   3  0.000000  1.000000  0.000000       22.39000            
 290   SMTRY3   3  0.000000  0.000000 -1.000000       58.59500            
 290   SMTRY1   4  1.000000  0.000000  0.000000       22.94000            
 290   SMTRY2   4  0.000000 -1.000000  0.000000       22.39000            
 290   SMTRY3   4  0.000000  0.000000 -1.000000        0.00000            
 290                                                                      
 290 REMARK: NULL                                                         
 300                                                                      
 300 BIOMOLECULE: 1                                                       
 300 SEE REMARK 350 FOR THE AUTHOR PROVIDED AND/OR PROGRAM                
 300 GENERATED ASSEMBLY INFORMATION FOR THE STRUCTURE IN                  
 300 THIS ENTRY. THE REMARK MAY ALSO PROVIDE INFORMATION ON               
 300 BURIED SURFACE AREA.                                                 
 350                                                                      
 350 COORDINATES FOR A COMPLETE MULTIMER REPRESENTING THE KNOWN           
 350 BIOLOGICALLY SIGNIFICANT OLIGOMERIZATION STATE OF THE                
 350 MOLECULE CAN BE GENERATED BY APPLYING BIOMT TRANSFORMATIONS          
 350 GIVEN BELOW.  BOTH NON-CRYSTALLOGRAPHIC AND                          
 350 CRYSTALLOGRAPHIC OPERATIONS ARE GIVEN.                               
 350                                                                      
 350 BIOMOLECULE: 1                                                       
 350 AUTHOR DETERMINED BIOLOGICAL UNIT: MONOMERIC                         
 350 APPLY THE FOLLOWING TO CHAINS: A                                     
 350   BIOMT1   1  1.000000  0.000000  0.000000        0.00000            
 350   BIOMT2   1  0.000000  1.000000  0.000000        0.00000            
 350   BIOMT3   1  0.000000  0.000000  1.000000        0.00000            
 465                                                                      
 465 MISSING RESIDUES                                                     
 465 THE FOLLOWING RESIDUES WERE NOT LOCATED IN THE                       
 465 EXPERIMENT. (M=MODEL NUMBER; RES=RESIDUE NAME; C=CHAIN               
 465 IDENTIFIER; SSSEQ=SEQUENCE NUMBER; I=INSERTION CODE.)                
 465                                                                      
 465   M RES C SSSEQI                                                     
 465     GLN A     1                                                      
 465     GLY A   262                                                      
 465     LEU A   263                                                      
 470                                                                      
 470 MISSING ATOM                                                         
 470 THE FOLLOWING RESIDUES HAVE MISSING ATOMS (M=MODEL NUMBER;           
 470 RES=RESIDUE NAME; C=CHAIN IDENTIFIER; SSEQ=SEQUENCE NUMBER;          
 470 I=INSERTION CODE):                                                   
 470   M RES CSSEQI  ATOMS                                                
 470     THR A   2    OG1  CG2                                            
 470     ASP A   4    CG   OD1  OD2                                       
 470     GLN A   7    CG   CD   OE1  NE2                                  
 470     GLU A  11    CG   CD   OE1  OE2                                  
 470     LYS A 227    CG   CD   CE   NZ                                   
 470     GLU A 246    CG   CD   OE1  OE2                                  
 470     ASP A 261    CG   OD1  OD2                                       
 500                                                                      
 500 GEOMETRY AND STEREOCHEMISTRY                                         
 500 SUBTOPIC: COVALENT BOND ANGLES                                       
 500                                                                      
 500 THE STEREOCHEMICAL PARAMETERS OF THE FOLLOWING RESIDUES              
 500 HAVE VALUES WHICH DEVIATE FROM EXPECTED VALUES BY MORE               
 500 THAN 6*RMSD (M=MODEL NUMBER; RES=RESIDUE NAME; C=CHAIN               
 500 IDENTIFIER; SSEQ=SEQUENCE NUMBER; I=INSERTION CODE).                 
 500                                                                      
 500 STANDARD TABLE:                                                      
 500 FORMAT: (10X,I3,1X,A3,1X,A1,I4,A1,3(1X,A4,2X),12X,F5.1)              
 500                                                                      
 500 EXPECTED VALUES PROTEIN: ENGH AND HUBER, 1999                        
 500 EXPECTED VALUES NUCLEIC ACID: CLOWNEY ET AL 1996                     
 500                                                                      
 500  M RES CSSEQI ATM1   ATM2   ATM3                                     
 500    ARG A 229   NE  -  CZ  -  NH1 ANGL. DEV. =   3.5 DEGREES          
 500    ARG A 249   NE  -  CZ  -  NH2 ANGL. DEV. =  -3.5 DEGREES          
 500                                                                      
 500 REMARK: NULL                                                         
 500                                                                      
 500 GEOMETRY AND STEREOCHEMISTRY                                         
 500 SUBTOPIC: TORSION ANGLES                                             
 500                                                                      
 500 TORSION ANGLES OUTSIDE THE EXPECTED RAMACHANDRAN REGIONS:            
 500 (M=MODEL NUMBER; RES=RESIDUE NAME; C=CHAIN IDENTIFIER;               
 500 SSEQ=SEQUENCE NUMBER; I=INSERTION CODE).                             
 500                                                                      
 500 STANDARD TABLE:                                                      
 500 FORMAT:(10X,I3,1X,A3,1X,A1,I4,A1,4X,F7.2,3X,F7.2)                    
 500                                                                      
 500 EXPECTED VALUES: GJ KLEYWEGT AND TA JONES (1996). PHI/PSI-           
 500 CHOLOGY: RAMACHANDRAN REVISITED. STRUCTURE 4, 1395 - 1400            
 500                                                                      
 500  M RES CSSEQI        PSI       PHI                                   
 500    CYS A  44     -138.76     51.07                                   
 500    VAL A  78     -140.68   -124.56                                   
 500    SER A 195     -125.62   -106.55                                   
 500                                                                      
 500 REMARK: NULL                                                         

>  <DBREF>
 7TI0 A    1   263  UNP    Q2PUH3   Q2PUH3_KLEPN    29    291             

>  <SEQRES>
   1 A  263  GLN THR ALA ASP VAL GLN GLN LYS LEU ALA GLU LEU GLU          
   2 A  263  ARG GLN SER GLY GLY ARG LEU GLY VAL ALA LEU ILE ASN          
   3 A  263  THR ALA ASP ASN SER GLN ILE LEU TYR ARG ALA ASP GLU          
   4 A  263  ARG PHE ALA MET CYS SER THR SER LYS VAL MET ALA ALA          
   5 A  263  ALA ALA VAL LEU LYS LYS SER GLU SER GLU PRO ASN LEU          
   6 A  263  LEU ASN GLN ARG VAL GLU ILE LYS LYS SER ASP LEU VAL          
   7 A  263  ASN TYR ASN PRO ILE ALA GLU LYS HIS VAL ASN GLY THR          
   8 A  263  MET SER LEU ALA GLU LEU SER ALA ALA ALA LEU GLN TYR          
   9 A  263  SER ASP ASN VAL ALA MET ASN LYS LEU ILE ALA HIS VAL          
  10 A  263  GLY GLY PRO ALA SER VAL THR ALA PHE ALA ARG GLN LEU          
  11 A  263  GLY ASP GLU THR PHE ARG LEU ASP ARG THR GLU PRO THR          
  12 A  263  LEU ASN THR ALA ILE PRO GLY ASP PRO ARG ASP THR THR          
  13 A  263  SER PRO ARG ALA MET ALA GLN THR LEU ARG ASN LEU THR          
  14 A  263  LEU GLY LYS ALA LEU GLY ASP SER GLN ARG ALA GLN LEU          
  15 A  263  VAL THR TRP MET LYS GLY ASN THR THR GLY ALA ALA SER          
  16 A  263  ILE GLN ALA GLY LEU PRO ALA SER TRP VAL VAL GLY ASP          
  17 A  263  LYS THR GLY SER GLY GLY TYR GLY THR THR ASN ASP ILE          
  18 A  263  ALA VAL ILE TRP PRO LYS ASP ARG ALA PRO LEU ILE LEU          
  19 A  263  VAL THR TYR PHE THR GLN PRO GLN PRO LYS ALA GLU SER          
  20 A  263  ARG ARG ASP VAL LEU ALA SER ALA ALA LYS ILE VAL THR          
  21 A  263  ASP GLY LEU                                                  

>  <HET>
 ZXQ  A 301      21                                                       
 SO4  A 302       5                                                       
 SO4  A 303       5                                                       
 EDO  A 304       4                                                       
  CL  A 305       1                                                       

>  <HETNAM>
     ZXQ {(3R,7S)-2-HYDROXY-3-[2-(THIOPHEN-2-YL)ACETAMIDO]-2,3,           
   2 ZXQ  4,7-TETRAHYDRO-1,2-OXABOREPIN-7-YL}ACETIC ACID                  
     SO4 SULFATE ION                                                      
     EDO 1,2-ETHANEDIOL                                                   
      CL CHLORIDE ION                                                     

>  <HETSYN>
     EDO ETHYLENE GLYCOL                                                  

>  <FORMUL>
   2  ZXQ    C13 H16 B N O5 S                                             
   3  SO4    2(O4 S 2-)                                                   
   5  EDO    C2 H6 O2                                                     
   6   CL    CL 1-                                                        
   7  HOH   *293(H2 O)                                                    

>  <HELIX>
   1 AA1 THR A    2  GLY A   17  1                                  16    
   2 AA2 CYS A   44  THR A   46  5                                   3    
   3 AA3 SER A   47  GLU A   60  1                                  14    
   4 AA4 ASN A   64  ASN A   67  5                                   4    
   5 AA5 LYS A   73  LEU A   77  5                                   5    
   6 AA6 ILE A   83  HIS A   87  5                                   5    
   7 AA7 LEU A   94  TYR A  104  1                                  11    
   8 AA8 ASP A  106  GLY A  118  1                                  13    
   9 AA9 GLY A  119  GLY A  131  1                                  13    
  10 AB1 PRO A  142  THR A  146  5                                   5    
  11 AB2 SER A  157  LEU A  170  1                                  14    
  12 AB3 GLY A  175  GLY A  188  1                                  14    
  13 AB4 SER A  195  LEU A  200  5                                   6    
  14 AB5 ARG A  248  ASP A  261  1                                  14    

>  <SHEET>
   1 AA1 5 SER A  31  TYR A  35  0                                        
   2 AA1 5 ARG A  19  ASN A  26 -1  N  VAL A  22   O  TYR A  35           
   3 AA1 5 LEU A 232  THR A 239 -1  O  TYR A 237   N  GLY A  21           
   4 AA1 5 THR A 217  TRP A 225 -1  N  ASP A 220   O  THR A 236           
   5 AA1 5 VAL A 205  GLY A 213 -1  N  VAL A 205   O  TRP A 225           
   1 AA2 2 PHE A  41  ALA A  42  0                                        
   2 AA2 2 THR A 155  THR A 156 -1  O  THR A 156   N  PHE A  41           
   1 AA3 2 ARG A  69  GLU A  71  0                                        
   2 AA3 2 THR A  91  SER A  93 -1  O  MET A  92   N  VAL A  70           

>  <LINK>
       OG  SER A  45                 B15 ZXQ A 301     1555   1555  1.50  

>  <CISPEP>
   1 GLU A  141    PRO A  142          0         7.18                     

>  <ORIGX1>
      1.000000  0.000000  0.000000        0.00000                         

>  <ORIGX2>
      0.000000  1.000000  0.000000        0.00000                         

>  <ORIGX3>
      0.000000  0.000000  1.000000        0.00000                         

>  <SCALE1>
      0.021796  0.000000  0.000000        0.00000                         

>  <SCALE2>
      0.000000  0.022331  0.000000        0.00000                         

>  <SCALE3>
      0.000000  0.000000  0.008533        0.00000                         

>  <ANISOU>
  319  N   SER A  45      417    359    284    -43     44     -2       N  
  320  CA  SER A  45      413    340    283    -37     40    -14       C  
  321  C   SER A  45      413    320    274    -35     38    -14       C  
  322  O   SER A  45      414    307    281    -33     36    -18       O  
  323  CB  SER A  45      414    361    297    -31     43    -31       C  
  324  OG  SER A  45      415    386    313    -30     47    -33       O  

>  <MASTER>
      315    0    5   14    9    0    0    6 2256    1   36   21          

$$$$
