start_structures/Ligand_Substrate/Ligand_Complex_Stripped/ZZ7_2WKH.pdb
 OpenBabel08222315213D

 30 31  0  0  1  0  0  0  0  0999 V2000
    7.3300   14.2270   61.5080 N   0  0  0  0  0  0  0  0  0  0  0  0
    7.8050   13.8140   62.7980 C   0  0  2  0  0  0  0  0  0  0  0  0
    8.6950   12.5640   62.7830 C   0  0  0  0  0  0  0  0  0  0  0  0
    9.2750   12.2200   63.8300 O   0  0  0  0  0  0  0  0  0  0  0  0
    6.6870   13.6870   63.7920 C   0  0  0  0  0  0  0  0  0  0  0  0
    6.0950   14.9530   63.9560 O   0  0  0  0  0  0  0  0  0  0  0  0
    1.5430   11.8280   64.1600 O   0  0  0  0  0  0  0  0  0  0  0  0
    0.6400   12.7050   64.0790 C   0  0  0  0  0  0  0  0  0  0  0  0
   -0.5690   12.4140   63.9140 O   0  0  0  0  0  0  0  0  0  0  0  0
    1.0410   14.1620   64.1380 C   0  0  1  0  0  0  0  0  0  0  0  0
    0.6170   14.9390   65.3920 C   0  0  0  0  0  0  0  0  0  0  0  0
    0.8070   14.1290   66.6710 C   0  0  0  0  0  0  0  0  0  0  0  0
   -0.8250   15.4050   65.3510 C   0  0  0  0  0  0  0  0  0  0  0  0
    1.6990   16.3370   65.4160 S   0  0  0  0  0  0  0  0  0  0  0  0
    2.4860   14.3000   64.0750 N   0  0  0  0  0  0  0  0  0  0  0  0
    3.0570   15.4100   64.8130 C   0  0  1  0  0  0  0  0  0  0  0  0
    3.9600   16.2100   63.8880 C   0  0  1  0  0  0  0  0  0  0  0  0
    4.8750   15.1500   63.3220 C   0  0  0  0  0  0  0  0  0  0  0  0
    4.5310   14.4640   62.3450 O   0  0  0  0  0  0  0  0  0  0  0  0
    3.1250   16.7820   62.8440 N   0  0  0  0  0  0  0  0  0  0  0  0
    3.1420   18.0810   62.6020 C   0  0  0  0  0  0  0  0  0  0  0  0
    3.9130   18.7970   63.2080 O   0  0  0  0  0  0  0  0  0  0  0  0
    2.1920   18.6770   61.6160 C   0  0  2  0  0  0  0  0  0  0  0  0
    2.5990   20.0610   61.4210 N   0  0  0  0  0  0  0  0  0  0  0  0
    0.8460   18.5260   62.2260 C   0  0  0  0  0  0  0  0  0  0  0  0
   -0.1370   17.7840   61.5850 C   0  0  0  0  0  0  0  0  0  0  0  0
   -1.3850   17.6270   62.1820 C   0  0  0  0  0  0  0  0  0  0  0  0
   -1.6660   18.2000   63.4220 C   0  0  0  0  0  0  0  0  0  0  0  0
   -0.6810   18.9320   64.0730 C   0  0  0  0  0  0  0  0  0  0  0  0
    0.5720   19.0840   63.4740 C   0  0  0  0  0  0  0  0  0  0  0  0
  2  1  1  6  0  0  0
  2  5  1  0  0  0  0
  3  2  1  0  0  0  0
  3  4  2  0  0  0  0
  5  6  1  0  0  0  0
  6 18  1  0  0  0  0
  7  8  2  0  0  0  0
  8  9  1  0  0  0  0
 10  8  1  1  0  0  0
 10 11  1  0  0  0  0
 10 15  1  0  0  0  0
 11 12  1  0  0  0  0
 11 13  1  0  0  0  0
 11 14  1  0  0  0  0
 14 16  1  0  0  0  0
 15 16  1  0  0  0  0
 16 17  1  6  0  0  0
 17 18  1  6  0  0  0
 17 20  1  0  0  0  0
 18 19  2  0  0  0  0
 20 21  1  0  0  0  0
 21 22  2  0  0  0  0
 21 23  1  0  0  0  0
 23 24  1  1  0  0  0
 23 25  1  0  0  0  0
 25 26  2  0  0  0  0
 25 30  1  0  0  0  0
 26 27  1  0  0  0  0
 27 28  2  0  0  0  0
 28 29  1  0  0  0  0
 29 30  2  0  0  0  0
M  END
>  <HEADER>
    HYDROLASE                               11-JUN-09   2WKH              

>  <TITLE>
    CRYSTAL STRUCTURE OF THE ACYL-ENZYME OXA-10 K70C-AMPICILLIN AT PH 7   

>  <COMPND>
    MOL_ID: 1;                                                            
   2 MOLECULE: BETA-LACTAMASE OXA-10;                                     
   3 CHAIN: A, B;                                                         
   4 FRAGMENT: RESIDUES 20-266;                                           
   5 SYNONYM: BETA-LACTAMASE PSE-2;                                       
   6 EC: 3.5.2.6;                                                         
   7 ENGINEERED: YES;                                                     
   8 MUTATION: YES                                                        

>  <SOURCE>
    MOL_ID: 1;                                                            
   2 ORGANISM_SCIENTIFIC: PSEUDOMONAS AERUGINOSA;                         
   3 ORGANISM_TAXID: 287;                                                 
   4 EXPRESSION_SYSTEM: ESCHERICHIA COLI;                                 
   5 EXPRESSION_SYSTEM_TAXID: 469008;                                     
   6 EXPRESSION_SYSTEM_STRAIN: BL21(DE3);                                 
   7 EXPRESSION_SYSTEM_VECTOR_TYPE: PLASMID;                              
   8 EXPRESSION_SYSTEM_PLASMID: PET 22B                                   

>  <KEYWDS>
    HYDROLASE, ANTIBIOTIC RESISTANCE, CLASS D BETA-LACTAMASE, PLASMID     
   2 ENCODED                                                              

>  <EXPDTA>
    X-RAY DIFFRACTION                                                     

>  <AUTHOR>
    L.VERCHEVAL,C.BAUVOIS,F.KERFF,E.SAUVAGE,R.GUIET,P.CHARLIER,M.GALLENI  

>  <REVDAT>
   3   01-OCT-14 2WKH    1       TITLE  AUTHOR HETSYN                     
   2   25-APR-12 2WKH    1       JRNL   REMARK VERSN  SITE                
   1   25-AUG-10 2WKH    0                                                

>  <JRNL>
      AUTH   L.VERCHEVAL,C.BAUVOIS,A.DI PAOLO,F.BOREL,J.FERRER,E.SAUVAGE, 
      AUTH 2 A.MATAGNE,J.FRERE,P.CHARLIER,M.GALLENI,F.KERFF               
      TITL   THREE FACTORS THAT MODULATE THE ACTIVITY OF CLASS D BETA-    
      TITL 2 LACTAMASES AND INTERFERE WITH THE POST-TRANSLATIONAL         
      TITL 3 CARBOXYLATION OF LYS70.                                      
      REF    BIOCHEM.J.                    V. 432   495 2010              
      REFN                   ISSN 0264-6021                               
      PMID   21108605                                                     
      DOI    10.1042/BJ20101122                                           

>  <REMARK>
   2                                                                      
   2 RESOLUTION.    1.79 ANGSTROMS.                                       
   3                                                                      
   3 REFINEMENT.                                                          
   3   PROGRAM     : PHENIX (PHENIX.REFINE)                               
   3   AUTHORS     : PAUL ADAMS,PAVEL AFONINE,VICENT CHEN,IAN             
   3               : DAVIS,KRESHNA GOPAL,RALF GROSSE-KUNSTLEVE,           
   3               : LI-WEI HUNG,ROBERT IMMORMINO,TOM IOERGER,            
   3               : AIRLIE MCCOY,ERIK MCKEE,NIGEL MORIARTY,              
   3               : REETAL PAI,RANDY READ,JANE RICHARDSON,               
   3               : DAVID RICHARDSON,TOD ROMO,JIM SACCHETTINI,           
   3               : NICHOLAS SAUTER,JACOB SMITH,LAURENT                  
   3               : STORONI,TOM TERWILLIGER,PETER ZWART                  
   3                                                                      
   3    REFINEMENT TARGET : ML                                            
   3                                                                      
   3  DATA USED IN REFINEMENT.                                            
   3   RESOLUTION RANGE HIGH (ANGSTROMS) : 1.791                          
   3   RESOLUTION RANGE LOW  (ANGSTROMS) : 26.444                         
   3   MIN(FOBS/SIGMA_FOBS)              : 1.38                           
   3   COMPLETENESS FOR RANGE        (%) : 80.44                          
   3   NUMBER OF REFLECTIONS             : 46137                          
   3                                                                      
   3  FIT TO DATA USED IN REFINEMENT.                                     
   3   R VALUE     (WORKING + TEST SET) : 0.2032                          
   3   R VALUE            (WORKING SET) : 0.2002                          
   3   FREE R VALUE                     : 0.2592                          
   3   FREE R VALUE TEST SET SIZE   (%) : 5.0                             
   3   FREE R VALUE TEST SET COUNT      : 2325                            
   3                                                                      
   3  FIT TO DATA USED IN REFINEMENT (IN BINS).                           
   3   BIN  RESOLUTION RANGE  COMPL.    NWORK NFREE   RWORK  RFREE        
   3     1 26.4465 -  4.5980    1.00     3427   194  0.1496 0.1945        
   3     2  4.5980 -  3.6526    0.96     3160   158  0.1765 0.2386        
   3     3  3.6526 -  3.1918    0.95     3089   160  0.1922 0.2563        
   3     4  3.1918 -  2.9004    1.00     3224   171  0.1990 0.2213        
   3     5  2.9004 -  2.6927    1.00     3192   189  0.1878 0.2428        
   3     6  2.6927 -  2.5341    1.00     3204   179  0.1830 0.2499        
   3     7  2.5341 -  2.4073    1.00     3202   155  0.1837 0.2566        
   3     8  2.4073 -  2.3025    1.00     3183   160  0.1958 0.2777        
   3     9  2.3025 -  2.2139    0.91     1132    63  0.2619 0.3194        
   3    10  2.2139 -  2.1376    0.57     1771    84  0.2284 0.2930        
   3    11  2.1376 -  2.0708    0.98     3096   182  0.2142 0.2967        
   3    12  2.0708 -  2.0116    0.96     3030   164  0.2284 0.2941        
   3    13  2.0116 -  1.9587    0.96     3033   153  0.2464 0.3317        
   3    14  1.9587 -  1.9109    0.56     1466    75  0.3125 0.4197        
   3    15  1.8675 -  1.8277    0.88     2133   103  0.3274 0.3723        
   3    16  1.8277 -  1.7912    0.79     2470   135  0.3402 0.4003        
   3                                                                      
   3  BULK SOLVENT MODELLING.                                             
   3   METHOD USED        : FLAT BULK SOLVENT MODEL                       
   3   SOLVENT RADIUS     : 1.11                                          
   3   SHRINKAGE RADIUS   : 0.90                                          
   3   K_SOL              : 0.395                                         
   3   B_SOL              : 63.308                                        
   3                                                                      
   3  ERROR ESTIMATES.                                                    
   3   COORDINATE ERROR (MAXIMUM-LIKELIHOOD BASED)     : 0.31             
   3   PHASE ERROR (DEGREES, MAXIMUM-LIKELIHOOD BASED) : 26.51            
   3                                                                      
   3  B VALUES.                                                           
   3   FROM WILSON PLOT           (A**2) : 16.68                          
   3   MEAN B VALUE      (OVERALL, A**2) : 9.81                           
   3   OVERALL ANISOTROPIC B VALUE.                                       
   3    B11 (A**2) : -2.1915                                              
   3    B22 (A**2) : -4.4774                                              
   3    B33 (A**2) : -1.3619                                              
   3    B12 (A**2) : 0.0000                                               
   3    B13 (A**2) : 0.0000                                               
   3    B23 (A**2) : 0.0000                                               
   3                                                                      
   3  TWINNING INFORMATION.                                               
   3   FRACTION: NULL                                                     
   3   OPERATOR: NULL                                                     
   3                                                                      
   3  DEVIATIONS FROM IDEAL VALUES.                                       
   3                 RMSD          COUNT                                  
   3   BOND      :  0.013           4118                                  
   3   ANGLE     :  1.446           5591                                  
   3   CHIRALITY :  0.094            611                                  
   3   PLANARITY :  0.006            713                                  
   3   DIHEDRAL  : 17.611           1507                                  
   3                                                                      
   3  TLS DETAILS                                                         
   3   NUMBER OF TLS GROUPS  : 16                                         
   3   TLS GROUP : 1                                                      
   3    SELECTION: CHAIN A AND RESID 21:38                                
   3    ORIGIN FOR THE GROUP (A):   1.7257  -2.7754  46.5394              
   3    T TENSOR                                                          
   3      T11:   0.2016 T22:   0.3720                                     
   3      T33:   0.1888 T12:  -0.1314                                     
   3      T13:  -0.0189 T23:  -0.2273                                     
   3    L TENSOR                                                          
   3      L11:   2.1091 L22:   0.7777                                     
   3      L33:  -0.3245 L12:  -0.5170                                     
   3      L13:   0.1194 L23:  -0.4442                                     
   3    S TENSOR                                                          
   3      S11:   0.1714 S12:   0.3886 S13:  -0.0034                       
   3      S21:  -0.2262 S22:  -0.2389 S23:   0.2394                       
   3      S31:   0.4044 S32:  -0.3957 S33:  -0.0886                       
   3   TLS GROUP : 2                                                      
   3    SELECTION: CHAIN A AND RESID 39:83                                
   3    ORIGIN FOR THE GROUP (A):  13.5871   6.4850  56.7859              
   3    T TENSOR                                                          
   3      T11:   0.0746 T22:   0.1155                                     
   3      T33:   0.0583 T12:   0.0057                                     
   3      T13:   0.0168 T23:  -0.0211                                     
   3    L TENSOR                                                          
   3      L11:   0.1446 L22:   0.2957                                     
   3      L33:   0.2482 L12:   0.0764                                     
   3      L13:   0.0055 L23:  -0.1553                                     
   3    S TENSOR                                                          
   3      S11:  -0.1047 S12:   0.0264 S13:   0.0190                       
   3      S21:   0.0304 S22:   0.0333 S23:  -0.0309                       
   3      S31:   0.0475 S32:   0.0716 S33:  -0.0828                       
   3   TLS GROUP : 3                                                      
   3    SELECTION: CHAIN A AND RESID 84:104                               
   3    ORIGIN FOR THE GROUP (A):   7.0092  19.0105  77.5919              
   3    T TENSOR                                                          
   3      T11:   0.1861 T22:   0.1713                                     
   3      T33:   0.0947 T12:   0.0722                                     
   3      T13:  -0.0191 T23:  -0.0097                                     
   3    L TENSOR                                                          
   3      L11:   0.0931 L22:   0.5849                                     
   3      L33:   0.2339 L12:  -0.3202                                     
   3      L13:  -0.0499 L23:  -0.2161                                     
   3    S TENSOR                                                          
   3      S11:  -0.2231 S12:  -0.2322 S13:  -0.2441                       
   3      S21:   0.2306 S22:   0.2200 S23:   0.3613                       
   3      S31:   0.2288 S32:  -0.1588 S33:   0.0113                       
   3   TLS GROUP : 4                                                      
   3    SELECTION: CHAIN A AND RESID 105:133                              
   3    ORIGIN FOR THE GROUP (A):  13.2593  17.7344  70.0776              
   3    T TENSOR                                                          
   3      T11:   0.1099 T22:   0.0746                                     
   3      T33:   0.0620 T12:   0.0263                                     
   3      T13:  -0.0159 T23:   0.0225                                     
   3    L TENSOR                                                          
   3      L11:   0.2480 L22:   0.4749                                     
   3      L33:   0.0605 L12:  -0.0821                                     
   3      L13:  -0.2228 L23:  -0.0480                                     
   3    S TENSOR                                                          
   3      S11:  -0.0083 S12:   0.1161 S13:   0.1463                       
   3      S21:  -0.0830 S22:   0.0962 S23:  -0.1632                       
   3      S31:  -0.0307 S32:  -0.0337 S33:   0.0769                       
   3   TLS GROUP : 5                                                      
   3    SELECTION: CHAIN A AND RESID 134:192                              
   3    ORIGIN FOR THE GROUP (A):  18.6694  10.9745  60.9307              
   3    T TENSOR                                                          
   3      T11:   0.0716 T22:   0.0706                                     
   3      T33:   0.0748 T12:   0.0207                                     
   3      T13:   0.0028 T23:   0.0148                                     
   3    L TENSOR                                                          
   3      L11:   0.0896 L22:  -0.0401                                     
   3      L33:   0.5145 L12:  -0.1063                                     
   3      L13:  -0.1695 L23:  -0.0237                                     
   3    S TENSOR                                                          
   3      S11:  -0.0700 S12:   0.0356 S13:   0.0067                       
   3      S21:   0.0421 S22:   0.0121 S23:   0.0674                       
   3      S31:  -0.0095 S32:  -0.0380 S33:  -0.1221                       
   3   TLS GROUP : 6                                                      
   3    SELECTION: CHAIN A AND RESID 193:214                              
   3    ORIGIN FOR THE GROUP (A):   4.2800   3.3022  63.8795              
   3    T TENSOR                                                          
   3      T11:   0.1763 T22:   0.1042                                     
   3      T33:   0.0939 T12:   0.0064                                     
   3      T13:   0.0011 T23:  -0.0190                                     
   3    L TENSOR                                                          
   3      L11:   0.0326 L22:   0.3500                                     
   3      L33:   0.3599 L12:   0.0309                                     
   3      L13:  -0.2513 L23:   0.1110                                     
   3    S TENSOR                                                          
   3      S11:  -0.0099 S12:  -0.0058 S13:  -0.1379                       
   3      S21:  -0.2111 S22:  -0.0906 S23:  -0.1448                       
   3      S31:   0.3325 S32:  -0.1955 S33:  -0.0196                       
   3   TLS GROUP : 7                                                      
   3    SELECTION: CHAIN A AND RESID 215:237                              
   3    ORIGIN FOR THE GROUP (A):   8.7519   0.2063  58.7724              
   3    T TENSOR                                                          
   3      T11:   0.2172 T22:   0.0880                                     
   3      T33:   0.1378 T12:  -0.0113                                     
   3      T13:   0.0264 T23:   0.0069                                     
   3    L TENSOR                                                          
   3      L11:   0.2430 L22:   0.0781                                     
   3      L33:   0.3314 L12:  -0.0025                                     
   3      L13:  -0.4515 L23:   0.1831                                     
   3    S TENSOR                                                          
   3      S11:   0.0809 S12:   0.1761 S13:   0.0210                       
   3      S21:  -0.0976 S22:  -0.1861 S23:  -0.0568                       
   3      S31:   0.2506 S32:  -0.0003 S33:  -0.0001                       
   3   TLS GROUP : 8                                                      
   3    SELECTION: CHAIN A AND RESID 238:264                              
   3    ORIGIN FOR THE GROUP (A):  -1.2600   1.8056  56.9026              
   3    T TENSOR                                                          
   3      T11:   0.1769 T22:   0.1483                                     
   3      T33:   0.1976 T12:  -0.0647                                     
   3      T13:   0.0277 T23:   0.0009                                     
   3    L TENSOR                                                          
   3      L11:   0.2063 L22:   0.4517                                     
   3      L33:   0.1241 L12:  -0.0934                                     
   3      L13:  -0.2031 L23:   0.2844                                     
   3    S TENSOR                                                          
   3      S11:   0.0777 S12:   0.0691 S13:  -0.2747                       
   3      S21:  -0.1855 S22:  -0.0825 S23:   0.4989                       
   3      S31:   0.0950 S32:  -0.3120 S33:  -0.0141                       
   3   TLS GROUP : 9                                                      
   3    SELECTION: CHAIN B AND RESID 19:39                                
   3    ORIGIN FOR THE GROUP (A):  -0.6020  -6.2542  99.9147              
   3    T TENSOR                                                          
   3      T11:   0.1067 T22:   0.3809                                     
   3      T33:   0.2021 T12:  -0.0068                                     
   3      T13:   0.0604 T23:   0.0167                                     
   3    L TENSOR                                                          
   3      L11:   0.0969 L22:   0.5423                                     
   3      L33:   0.0823 L12:   0.2625                                     
   3      L13:   0.1348 L23:  -0.1734                                     
   3    S TENSOR                                                          
   3      S11:   0.1492 S12:   0.0842 S13:  -0.1806                       
   3      S21:   0.4386 S22:  -0.2489 S23:   0.0497                       
   3      S31:  -0.0540 S32:  -0.2436 S33:   0.0016                       
   3   TLS GROUP : 10                                                     
   3    SELECTION: CHAIN B AND RESID 40:83                                
   3    ORIGIN FOR THE GROUP (A):  14.6868  -7.7828  92.8941              
   3    T TENSOR                                                          
   3      T11:   0.1614 T22:   0.1184                                     
   3      T33:   0.0968 T12:   0.0135                                     
   3      T13:  -0.0045 T23:   0.0775                                     
   3    L TENSOR                                                          
   3      L11:   0.5484 L22:   0.3116                                     
   3      L33:   0.2699 L12:   0.0524                                     
   3      L13:   0.0224 L23:   0.2105                                     
   3    S TENSOR                                                          
   3      S11:   0.1222 S12:  -0.1023 S13:  -0.3172                       
   3      S21:  -0.1283 S22:  -0.1733 S23:  -0.0308                       
   3      S31:  -0.0892 S32:   0.0047 S33:   0.0109                       
   3   TLS GROUP : 11                                                     
   3    SELECTION: CHAIN B AND RESID 84:96                                
   3    ORIGIN FOR THE GROUP (A):  23.1908 -18.5985  70.4566              
   3    T TENSOR                                                          
   3      T11:   0.7147 T22:   0.3108                                     
   3      T33:   0.3813 T12:   0.2090                                     
   3      T13:   0.2414 T23:  -0.0300                                     
   3    L TENSOR                                                          
   3      L11:   0.4916 L22:   0.2662                                     
   3      L33:   1.2734 L12:  -0.6929                                     
   3      L13:   0.9859 L23:  -0.5227                                     
   3    S TENSOR                                                          
   3      S11:  -0.6984 S12:  -0.0947 S13:  -0.4852                       
   3      S21:  -0.0545 S22:  -0.2509 S23:  -0.1439                       
   3      S31:  -0.1274 S32:   0.1891 S33:  -0.1057                       
   3   TLS GROUP : 12                                                     
   3    SELECTION: CHAIN B AND RESID 97:108                               
   3    ORIGIN FOR THE GROUP (A):  14.8964 -22.5638  73.4419              
   3    T TENSOR                                                          
   3      T11:   0.3412 T22:   0.1790                                     
   3      T33:   0.2572 T12:  -0.0747                                     
   3      T13:  -0.0134 T23:  -0.0236                                     
   3    L TENSOR                                                          
   3      L11:  -0.0008 L22:  -0.0086                                     
   3      L33:   0.0395 L12:  -0.0214                                     
   3      L13:  -0.0341 L23:   0.0049                                     
   3    S TENSOR                                                          
   3      S11:   0.0486 S12:  -0.0477 S13:  -0.0470                       
   3      S21:  -0.5290 S22:   0.0773 S23:  -0.1255                       
   3      S31:  -0.1351 S32:  -0.2607 S33:  -0.0000                       
   3   TLS GROUP : 13                                                     
   3    SELECTION: CHAIN B AND RESID 109:130                              
   3    ORIGIN FOR THE GROUP (A):  22.4288 -18.2319  81.0611              
   3    T TENSOR                                                          
   3      T11:   0.2013 T22:   0.2027                                     
   3      T33:   0.2716 T12:   0.0149                                     
   3      T13:   0.0445 T23:   0.0256                                     
   3    L TENSOR                                                          
   3      L11:  -0.0152 L22:   0.1139                                     
   3      L33:   0.1944 L12:   0.0525                                     
   3      L13:   0.0649 L23:   0.0462                                     
   3    S TENSOR                                                          
   3      S11:   0.0685 S12:  -0.1727 S13:  -0.3674                       
   3      S21:  -0.1639 S22:  -0.0864 S23:  -0.1795                       
   3      S31:   0.1899 S32:   0.0310 S33:  -0.0001                       
   3   TLS GROUP : 14                                                     
   3    SELECTION: CHAIN B AND RESID 131:192                              
   3    ORIGIN FOR THE GROUP (A):  22.5573  -8.8594  89.8243              
   3    T TENSOR                                                          
   3      T11:   0.0662 T22:   0.0856                                     
   3      T33:   0.1458 T12:   0.0038                                     
   3      T13:  -0.0080 T23:   0.0452                                     
   3    L TENSOR                                                          
   3      L11:   0.5065 L22:   0.2150                                     
   3      L33:   0.5788 L12:  -0.1026                                     
   3      L13:  -0.2459 L23:   0.0746                                     
   3    S TENSOR                                                          
   3      S11:  -0.0618 S12:  -0.0608 S13:  -0.1028                       
   3      S21:   0.0655 S22:  -0.0308 S23:  -0.1376                       
   3      S31:  -0.0091 S32:   0.0665 S33:  -0.0508                       
   3   TLS GROUP : 15                                                     
   3    SELECTION: CHAIN B AND RESID 193:235                              
   3    ORIGIN FOR THE GROUP (A):   7.2690  -6.8951  86.8453              
   3    T TENSOR                                                          
   3      T11:   0.0743 T22:   0.1146                                     
   3      T33:   0.1317 T12:  -0.0039                                     
   3      T13:  -0.0371 T23:   0.0435                                     
   3    L TENSOR                                                          
   3      L11:   0.3148 L22:   0.0413                                     
   3      L33:   0.6739 L12:   0.0056                                     
   3      L13:  -0.1424 L23:   0.2654                                     
   3    S TENSOR                                                          
   3      S11:  -0.0351 S12:  -0.0482 S13:   0.0081                       
   3      S21:   0.1583 S22:  -0.0615 S23:  -0.0878                       
   3      S31:  -0.1694 S32:  -0.1702 S33:  -0.0599                       
   3   TLS GROUP : 16                                                     
   3    SELECTION: CHAIN B AND RESID 236:264                              
   3    ORIGIN FOR THE GROUP (A):   0.2093 -11.7142  90.2929              
   3    T TENSOR                                                          
   3      T11:   0.0739 T22:   0.1977                                     
   3      T33:   0.1911 T12:  -0.0113                                     
   3      T13:  -0.0487 T23:   0.0307                                     
   3    L TENSOR                                                          
   3      L11:   0.2982 L22:   0.1141                                     
   3      L33:   0.1885 L12:   0.2051                                     
   3      L13:   0.0820 L23:   0.0703                                     
   3    S TENSOR                                                          
   3      S11:   0.0698 S12:  -0.0932 S13:   0.0036                       
   3      S21:  -0.0032 S22:   0.0095 S23:   0.0859                       
   3      S31:   0.1373 S32:  -0.3405 S33:  -0.0029                       
   3                                                                      
   3  NCS DETAILS                                                         
   3   NUMBER OF NCS GROUPS : NULL                                        
   3                                                                      
   3  OTHER REFINEMENT REMARKS: NULL                                      
   4                                                                      
   4 2WKH COMPLIES WITH FORMAT V. 3.30, 13-JUL-11                         
 100                                                                      
 100 THIS ENTRY HAS BEEN PROCESSED BY PDBE ON 15-JUN-09.                  
 100 THE PDBE ID CODE IS EBI-40104.                                       
 200                                                                      
 200 EXPERIMENTAL DETAILS                                                 
 200  EXPERIMENT TYPE                : X-RAY DIFFRACTION                  
 200  DATE OF DATA COLLECTION        : 13-MAY-07                          
 200  TEMPERATURE           (KELVIN) : 100                                
 200  PH                             : 7                                  
 200  NUMBER OF CRYSTALS USED        : 1                                  
 200                                                                      
 200  SYNCHROTRON              (Y/N) : Y                                  
 200  RADIATION SOURCE               : ESRF                               
 200  BEAMLINE                       : BM30A                              
 200  X-RAY GENERATOR MODEL          : NULL                               
 200  MONOCHROMATIC OR LAUE    (M/L) : M                                  
 200  WAVELENGTH OR RANGE        (A) : 0.980026                           
 200  MONOCHROMATOR                  : NULL                               
 200  OPTICS                         : NULL                               
 200                                                                      
 200  DETECTOR TYPE                  : CCD (QUANTUM 315)                  
 200  DETECTOR MANUFACTURER          : ADSC                               
 200  INTENSITY-INTEGRATION SOFTWARE : XDS                                
 200  DATA SCALING SOFTWARE          : SCALA                              
 200                                                                      
 200  NUMBER OF UNIQUE REFLECTIONS   : 47137                              
 200  RESOLUTION RANGE HIGH      (A) : 1.79                               
 200  RESOLUTION RANGE LOW       (A) : 48.56                              
 200  REJECTION CRITERIA  (SIGMA(I)) : 0.0                                
 200                                                                      
 200 OVERALL.                                                             
 200  COMPLETENESS FOR RANGE     (%) : 82.1                               
 200  DATA REDUNDANCY                : 7.9                                
 200  R MERGE                    (I) : 0.16                               
 200  R SYM                      (I) : NULL                               
 200  <I/SIGMA(I)> FOR THE DATA SET  : 10.70                              
 200                                                                      
 200 IN THE HIGHEST RESOLUTION SHELL.                                     
 200  HIGHEST RESOLUTION SHELL, RANGE HIGH (A) : 1.79                     
 200  HIGHEST RESOLUTION SHELL, RANGE LOW  (A) : 1.89                     
 200  COMPLETENESS FOR SHELL     (%) : 59.0                               
 200  DATA REDUNDANCY IN SHELL       : 6.9                                
 200  R MERGE FOR SHELL          (I) : 0.90                               
 200  R SYM FOR SHELL            (I) : NULL                               
 200  <I/SIGMA(I)> FOR SHELL         : 2.20                               
 200                                                                      
 200 DIFFRACTION PROTOCOL: SINGLE WAVELENGTH                              
 200 METHOD USED TO DETERMINE THE STRUCTURE: MOLECULAR REPLACEMENT        
 200 SOFTWARE USED: AMORE                                                 
 200 STARTING MODEL: PDB ENTRY 1K4F                                       
 200                                                                      
 200 REMARK: NONE                                                         
 280                                                                      
 280 CRYSTAL                                                              
 280 SOLVENT CONTENT, VS   (%): 50.19                                     
 280 MATTHEWS COEFFICIENT, VM (ANGSTROMS**3/DA): 2.49                     
 280                                                                      
 280 CRYSTALLIZATION CONDITIONS: 0.7M AS, 0.1M HEPES PH 7                 
 290                                                                      
 290 CRYSTALLOGRAPHIC SYMMETRY                                            
 290 SYMMETRY OPERATORS FOR SPACE GROUP: P 21 21 21                       
 290                                                                      
 290      SYMOP   SYMMETRY                                                
 290     NNNMMM   OPERATOR                                                
 290       1555   X,Y,Z                                                   
 290       2555   -X+1/2,-Y,Z+1/2                                         
 290       3555   -X,Y+1/2,-Z+1/2                                         
 290       4555   X+1/2,-Y+1/2,-Z                                         
 290                                                                      
 290     WHERE NNN -> OPERATOR NUMBER                                     
 290           MMM -> TRANSLATION VECTOR                                  
 290                                                                      
 290 CRYSTALLOGRAPHIC SYMMETRY TRANSFORMATIONS                            
 290 THE FOLLOWING TRANSFORMATIONS OPERATE ON THE ATOM/HETATM             
 290 RECORDS IN THIS ENTRY TO PRODUCE CRYSTALLOGRAPHICALLY                
 290 RELATED MOLECULES.                                                   
 290   SMTRY1   1  1.000000  0.000000  0.000000        0.00000            
 290   SMTRY2   1  0.000000  1.000000  0.000000        0.00000            
 290   SMTRY3   1  0.000000  0.000000  1.000000        0.00000            
 290   SMTRY1   2 -1.000000  0.000000  0.000000       24.46000            
 290   SMTRY2   2  0.000000 -1.000000  0.000000        0.00000            
 290   SMTRY3   2  0.000000  0.000000  1.000000       63.06500            
 290   SMTRY1   3 -1.000000  0.000000  0.000000        0.00000            
 290   SMTRY2   3  0.000000  1.000000  0.000000       48.54500            
 290   SMTRY3   3  0.000000  0.000000 -1.000000       63.06500            
 290   SMTRY1   4  1.000000  0.000000  0.000000       24.46000            
 290   SMTRY2   4  0.000000 -1.000000  0.000000       48.54500            
 290   SMTRY3   4  0.000000  0.000000 -1.000000        0.00000            
 290                                                                      
 290 REMARK: NULL                                                         
 300                                                                      
 300 BIOMOLECULE: 1                                                       
 300 SEE REMARK 350 FOR THE AUTHOR PROVIDED AND/OR PROGRAM                
 300 GENERATED ASSEMBLY INFORMATION FOR THE STRUCTURE IN                  
 300 THIS ENTRY. THE REMARK MAY ALSO PROVIDE INFORMATION ON               
 300 BURIED SURFACE AREA.                                                 
 350                                                                      
 350 COORDINATES FOR A COMPLETE MULTIMER REPRESENTING THE KNOWN           
 350 BIOLOGICALLY SIGNIFICANT OLIGOMERIZATION STATE OF THE                
 350 MOLECULE CAN BE GENERATED BY APPLYING BIOMT TRANSFORMATIONS          
 350 GIVEN BELOW.  BOTH NON-CRYSTALLOGRAPHIC AND                          
 350 CRYSTALLOGRAPHIC OPERATIONS ARE GIVEN.                               
 350                                                                      
 350 BIOMOLECULE: 1                                                       
 350 AUTHOR DETERMINED BIOLOGICAL UNIT: DIMERIC                           
 350 SOFTWARE DETERMINED QUATERNARY STRUCTURE: DIMERIC                    
 350 SOFTWARE USED: PISA                                                  
 350 TOTAL BURIED SURFACE AREA: 3200 ANGSTROM**2                          
 350 SURFACE AREA OF THE COMPLEX: 19950 ANGSTROM**2                       
 350 CHANGE IN SOLVENT FREE ENERGY: -70.2 KCAL/MOL                        
 350 APPLY THE FOLLOWING TO CHAINS: A, B                                  
 350   BIOMT1   1  1.000000  0.000000  0.000000        0.00000            
 350   BIOMT2   1  0.000000  1.000000  0.000000        0.00000            
 350   BIOMT3   1  0.000000  0.000000  1.000000        0.00000            
 400                                                                      
 400 COMPOUND                                                             
 400 ENGINEERED RESIDUE IN CHAIN A, LYS  70 TO CYS                        
 400 ENGINEERED RESIDUE IN CHAIN B, LYS  70 TO CYS                        
 465                                                                      
 465 MISSING RESIDUES                                                     
 465 THE FOLLOWING RESIDUES WERE NOT LOCATED IN THE                       
 465 EXPERIMENT. (M=MODEL NUMBER; RES=RESIDUE NAME; C=CHAIN               
 465 IDENTIFIER; SSSEQ=SEQUENCE NUMBER; I=INSERTION CODE.)                
 465                                                                      
 465   M RES C SSSEQI                                                     
 465     MET A    19                                                      
 465     GLY A    20                                                      
 465     GLY A   265                                                      
 465     GLY A   266                                                      
 465     GLY B   265                                                      
 465     GLY B   266                                                      
 500                                                                      
 500 GEOMETRY AND STEREOCHEMISTRY                                         
 500 SUBTOPIC: COVALENT BOND ANGLES                                       
 500                                                                      
 500 THE STEREOCHEMICAL PARAMETERS OF THE FOLLOWING RESIDUES              
 500 HAVE VALUES WHICH DEVIATE FROM EXPECTED VALUES BY MORE               
 500 THAN 6*RMSD (M=MODEL NUMBER; RES=RESIDUE NAME; C=CHAIN               
 500 IDENTIFIER; SSEQ=SEQUENCE NUMBER; I=INSERTION CODE).                 
 500                                                                      
 500 STANDARD TABLE:                                                      
 500 FORMAT: (10X,I3,1X,A3,1X,A1,I4,A1,3(1X,A4,2X),12X,F5.1)              
 500                                                                      
 500 EXPECTED VALUES PROTEIN: ENGH AND HUBER, 1999                        
 500 EXPECTED VALUES NUCLEIC ACID: CLOWNEY ET AL 1996                     
 500                                                                      
 500  M RES CSSEQI ATM1   ATM2   ATM3                                     
 500    CYS B  70   CA  -  CB  -  SG  ANGL. DEV. =   6.9 DEGREES          
 500                                                                      
 500 REMARK: NULL                                                         
 500                                                                      
 500 GEOMETRY AND STEREOCHEMISTRY                                         
 500 SUBTOPIC: TORSION ANGLES                                             
 500                                                                      
 500 TORSION ANGLES OUTSIDE THE EXPECTED RAMACHANDRAN REGIONS:            
 500 (M=MODEL NUMBER; RES=RESIDUE NAME; C=CHAIN IDENTIFIER;               
 500 SSEQ=SEQUENCE NUMBER; I=INSERTION CODE).                             
 500                                                                      
 500 STANDARD TABLE:                                                      
 500 FORMAT:(10X,I3,1X,A3,1X,A1,I4,A1,4X,F7.2,3X,F7.2)                    
 500                                                                      
 500 EXPECTED VALUES: GJ KLEYWEGT AND TA JONES (1996). PHI/PSI-           
 500 CHOLOGY: RAMACHANDRAN REVISITED. STRUCTURE 4, 1395 - 1400            
 500                                                                      
 500  M RES CSSEQI        PSI       PHI                                   
 500    SER A  46      -45.76     71.29                                   
 500    ALA A  66     -137.55     45.01                                   
 500    LYS A 152        6.11   -154.69                                   
 500    GLU A 229     -124.33     60.25                                   
 500    ALA B  66     -133.48     46.49                                   
 500    VAL B 117      -59.51    -26.39                                   
 500    ASN B 143        1.22    -69.95                                   
 500    LYS B 152        4.33   -150.99                                   
 500    PHE B 208      115.00   -162.16                                   
 500    ASN B 216       71.45   -114.45                                   
 500    GLU B 229     -127.88     56.34                                   
 500    ASN B 243      118.61   -161.95                                   
 500                                                                      
 500 REMARK: NULL                                                         
 800                                                                      
 800 SITE                                                                 
 800 SITE_IDENTIFIER: AC1                                                 
 800 EVIDENCE_CODE: SOFTWARE                                              
 800 SITE_DESCRIPTION: BINDING SITE FOR RESIDUE ZZ7 A1265                 
 800                                                                      
 800 SITE_IDENTIFIER: AC2                                                 
 800 EVIDENCE_CODE: SOFTWARE                                              
 800 SITE_DESCRIPTION: BINDING SITE FOR RESIDUE SO4 A1266                 
 800                                                                      
 800 SITE_IDENTIFIER: AC3                                                 
 800 EVIDENCE_CODE: SOFTWARE                                              
 800 SITE_DESCRIPTION: BINDING SITE FOR RESIDUE SO4 A1267                 
 800                                                                      
 800 SITE_IDENTIFIER: AC4                                                 
 800 EVIDENCE_CODE: SOFTWARE                                              
 800 SITE_DESCRIPTION: BINDING SITE FOR RESIDUE SO4 A1268                 
 800                                                                      
 800 SITE_IDENTIFIER: AC5                                                 
 800 EVIDENCE_CODE: SOFTWARE                                              
 800 SITE_DESCRIPTION: BINDING SITE FOR RESIDUE ZZ7 B1265                 
 800                                                                      
 800 SITE_IDENTIFIER: AC6                                                 
 800 EVIDENCE_CODE: SOFTWARE                                              
 800 SITE_DESCRIPTION: BINDING SITE FOR RESIDUE SO4 B1266                 
 800                                                                      
 800 SITE_IDENTIFIER: AC7                                                 
 800 EVIDENCE_CODE: SOFTWARE                                              
 800 SITE_DESCRIPTION: BINDING SITE FOR RESIDUE SO4 B1267                 
 900                                                                      
 900 RELATED ENTRIES                                                      
 900 RELATED ID: 1K55   RELATED DB: PDB                                   
 900  OXA 10 CLASS D BETA-LACTAMASE AT PH 7.5                             
 900 RELATED ID: 1K56   RELATED DB: PDB                                   
 900  OXA 10 CLASS D BETA-LACTAMASE AT PH 6.5                             
 900 RELATED ID: 1E3U   RELATED DB: PDB                                   
 900  MAD STRUCTURE OF OXA10 CLASS D BETA-                                
 900  LACTAMASE                                                           
 900 RELATED ID: 1FOF   RELATED DB: PDB                                   
 900  CRYSTAL STRUCTURE OF THE CLASS D BETA-                              
 900  LACTAMASE OXA-10                                                    
 900 RELATED ID: 2WGV   RELATED DB: PDB                                   
 900  CRYSTAL STRUCTURE OF THE OXA-10 V117T                               
 900  MUTANT AT PH 6.5 INHIBITED BY A CHLORIDE ION                        
 900 RELATED ID: 2WGI   RELATED DB: PDB                                   
 900  CRYSTAL STRUCTURE OF THE ACYL-ENZYME OXA-                           
 900  10 W154A-BENZYLPENICILLIN AT PH 6                                   
 900 RELATED ID: 1E4D   RELATED DB: PDB                                   
 900  STRUCTURE OF OXA10 BETA-LACTAMASE AT PH 8.3                         
 900 RELATED ID: 2WKI   RELATED DB: PDB                                   
 900  CRYSTAL STRUCTURE OF THE OXA-10 K70C                                
 900  MUTANT AT PH 7.0                                                    
 900 RELATED ID: 1K4F   RELATED DB: PDB                                   
 900  CRYSTAL STRUCTURE OF THE CLASS D BETA-                              
 900  LACTAMASE OXA-10 AT1.6 A RESOLUTION                                 
 900 RELATED ID: 1EWZ   RELATED DB: PDB                                   
 900  CRYSTAL STRUCTURE OF THE OXA-10 BETA-                               
 900  LACTAMASE FROM PSEUDOMONAS AERUGINOSA                               
 900 RELATED ID: 2WGW   RELATED DB: PDB                                   
 900  CRYSTAL STRUCTURE OF THE OXA-10 V117T                               
 900  MUTANT AT PH 8.0                                                    
 900 RELATED ID: 1K6S   RELATED DB: PDB                                   
 900  STRUCTURE OF THE CLASS D BETA-LACTAMASE                             
 900  OXA-10 IN COMPLEXWITH A PHENYLBORONIC ACID                          
 900 RELATED ID: 1K4E   RELATED DB: PDB                                   
 900  CRYSTAL STRUCTURE OF THE CLASS D BETA-                              
 900  LACTAMASES OXA-10DETERMINED BY MAD PHASING                          
 900  WITH SELENOMETHIONINE                                               
 900 RELATED ID: 1K57   RELATED DB: PDB                                   
 900  OXA 10 CLASS D BETA-LACTAMASE AT PH 6.0                             
 900 RELATED ID: 1K54   RELATED DB: PDB                                   
 900  OXA-10 CLASS D BETA-LACTAMASE PARTIALLY                             
 900  ACYLATED WITHREACTED 6BETA-(1-HYDROXY-1-                            
 900  METHYLETHYL) PENICILLANIC ACID                                      
 900 RELATED ID: 1K6R   RELATED DB: PDB                                   
 900  STRUCTURE OF THE CLASS D BETA-LACTAMASE                             
 900  OXA-10 IN COMPLEXWITH MOXALACTAM                                    

>  <DBREF>
 2WKH A   20   266  UNP    P14489   BLO10_PSEAE     20    266             
 2WKH B   20   266  UNP    P14489   BLO10_PSEAE     20    266             

>  <SEQADV>
 2WKH MET A   19  UNP  P14489              EXPRESSION TAG                 
 2WKH CYS A   70  UNP  P14489    LYS    70 ENGINEERED MUTATION            
 2WKH MET B   19  UNP  P14489              EXPRESSION TAG                 
 2WKH CYS B   70  UNP  P14489    LYS    70 ENGINEERED MUTATION            

>  <SEQRES>
   1 A  248  MET GLY SER ILE THR GLU ASN THR SER TRP ASN LYS GLU          
   2 A  248  PHE SER ALA GLU ALA VAL ASN GLY VAL PHE VAL LEU CYS          
   3 A  248  LYS SER SER SER LYS SER CYS ALA THR ASN ASP LEU ALA          
   4 A  248  ARG ALA SER LYS GLU TYR LEU PRO ALA SER THR PHE CYS          
   5 A  248  ILE PRO ASN ALA ILE ILE GLY LEU GLU THR GLY VAL ILE          
   6 A  248  LYS ASN GLU HIS GLN VAL PHE LYS TRP ASP GLY LYS PRO          
   7 A  248  ARG ALA MET LYS GLN TRP GLU ARG ASP LEU THR LEU ARG          
   8 A  248  GLY ALA ILE GLN VAL SER ALA VAL PRO VAL PHE GLN GLN          
   9 A  248  ILE ALA ARG GLU VAL GLY GLU VAL ARG MET GLN LYS TYR          
  10 A  248  LEU LYS LYS PHE SER TYR GLY ASN GLN ASN ILE SER GLY          
  11 A  248  GLY ILE ASP LYS PHE TRP LEU GLU GLY GLN LEU ARG ILE          
  12 A  248  SER ALA VAL ASN GLN VAL GLU PHE LEU GLU SER LEU TYR          
  13 A  248  LEU ASN LYS LEU SER ALA SER LYS GLU ASN GLN LEU ILE          
  14 A  248  VAL LYS GLU ALA LEU VAL THR GLU ALA ALA PRO GLU TYR          
  15 A  248  LEU VAL HIS SER LYS THR GLY PHE SER GLY VAL GLY THR          
  16 A  248  GLU SER ASN PRO GLY VAL ALA TRP TRP VAL GLY TRP VAL          
  17 A  248  GLU LYS GLU THR GLU VAL TYR PHE PHE ALA PHE ASN MET          
  18 A  248  ASP ILE ASP ASN GLU SER LYS LEU PRO LEU ARG LYS SER          
  19 A  248  ILE PRO THR LYS ILE MET GLU SER GLU GLY ILE ILE GLY          
  20 A  248  GLY                                                          
   1 B  248  MET GLY SER ILE THR GLU ASN THR SER TRP ASN LYS GLU          
   2 B  248  PHE SER ALA GLU ALA VAL ASN GLY VAL PHE VAL LEU CYS          
   3 B  248  LYS SER SER SER LYS SER CYS ALA THR ASN ASP LEU ALA          
   4 B  248  ARG ALA SER LYS GLU TYR LEU PRO ALA SER THR PHE CYS          
   5 B  248  ILE PRO ASN ALA ILE ILE GLY LEU GLU THR GLY VAL ILE          
   6 B  248  LYS ASN GLU HIS GLN VAL PHE LYS TRP ASP GLY LYS PRO          
   7 B  248  ARG ALA MET LYS GLN TRP GLU ARG ASP LEU THR LEU ARG          
   8 B  248  GLY ALA ILE GLN VAL SER ALA VAL PRO VAL PHE GLN GLN          
   9 B  248  ILE ALA ARG GLU VAL GLY GLU VAL ARG MET GLN LYS TYR          
  10 B  248  LEU LYS LYS PHE SER TYR GLY ASN GLN ASN ILE SER GLY          
  11 B  248  GLY ILE ASP LYS PHE TRP LEU GLU GLY GLN LEU ARG ILE          
  12 B  248  SER ALA VAL ASN GLN VAL GLU PHE LEU GLU SER LEU TYR          
  13 B  248  LEU ASN LYS LEU SER ALA SER LYS GLU ASN GLN LEU ILE          
  14 B  248  VAL LYS GLU ALA LEU VAL THR GLU ALA ALA PRO GLU TYR          
  15 B  248  LEU VAL HIS SER LYS THR GLY PHE SER GLY VAL GLY THR          
  16 B  248  GLU SER ASN PRO GLY VAL ALA TRP TRP VAL GLY TRP VAL          
  17 B  248  GLU LYS GLU THR GLU VAL TYR PHE PHE ALA PHE ASN MET          
  18 B  248  ASP ILE ASP ASN GLU SER LYS LEU PRO LEU ARG LYS SER          
  19 B  248  ILE PRO THR LYS ILE MET GLU SER GLU GLY ILE ILE GLY          
  20 B  248  GLY                                                          

>  <HET>
 ZZ7  A1265      24                                                       
 SO4  A1266       5                                                       
 SO4  A1267       5                                                       
 SO4  A1268       5                                                       
 ZZ7  B1265      24                                                       
 SO4  B1266       5                                                       
 SO4  B1267       5                                                       

>  <HETNAM>
     ZZ7 (2R,4S)-2-[(R)-{[(2R)-2-AMINO-2-                                 
   2 ZZ7  PHENYLACETYL]AMINO}(CARBOXY)METHYL]-5,5-DIMETHYL-1,3-           
   3 ZZ7  THIAZOLIDINE-4-CARBOXYLIC ACID                                  
     SO4 SULFATE ION                                                      

>  <HETSYN>
     ZZ7 AMPICILLIN (OPEN FORM)                                           

>  <FORMUL>
   3  ZZ7    2(C16 H21 N3 O5 S)                                           
   4  SO4    5(O4 S 2-)                                                   
   5  HOH   *275(H2 O)                                                    

>  <HELIX>
   1   1 THR A   26  TRP A   28  5                                   3    
   2   2 ASN A   29  ALA A   36  1                                   8    
   3   3 ASP A   55  SER A   60  1                                   6    
   4   4 PRO A   65  THR A   68  5                                   4    
   5   5 PHE A   69  THR A   80  1                                  12    
   6   6 MET A   99  GLU A  103  5                                   5    
   7   7 LEU A  108  VAL A  114  1                                   7    
   8   8 ALA A  116  PHE A  139  1                                  24    
   9   9 LYS A  152  GLY A  157  1                                   6    
  10  10 ALA A  163  LEU A  175  1                                  13    
  11  11 SER A  181  LEU A  192  1                                  12    
  12  12 ASN A  243  LEU A  247  5                                   5    
  13  13 PRO A  248  GLU A  261  1                                  14    
  14  14 TRP B   28  GLU B   35  1                                   8    
  15  15 ASP B   55  LYS B   61  1                                   7    
  16  16 PRO B   65  THR B   68  5                                   4    
  17  17 PHE B   69  THR B   80  1                                  12    
  18  18 MET B   99  GLU B  103  5                                   5    
  19  19 LEU B  108  SER B  115  1                                   8    
  20  20 ALA B  116  GLY B  128  1                                  13    
  21  21 GLY B  128  PHE B  139  1                                  12    
  22  22 ALA B  163  LEU B  175  1                                  13    
  23  23 SER B  181  LEU B  192  1                                  12    
  24  24 ASN B  243  LEU B  247  5                                   5    
  25  25 PRO B  248  GLU B  261  1                                  14    

>  <SHEET>
   1  AA 7 ILE A  22  GLU A  24  0                                        
   2  AA 7 CYS A  51  THR A  53  1  O  CYS A  51   N  THR A  23           
   3  AA 7 GLY A  39  LYS A  45 -1  O  LEU A  43   N  ALA A  52           
   4  AA 7 GLU A 231  ILE A 241 -1  O  PHE A 234   N  CYS A  44           
   5  AA 7 GLY A 218  LYS A 228 -1  O  GLY A 218   N  ILE A 241           
   6  AA 7 TYR A 200  PHE A 208 -1  O  LEU A 201   N  GLU A 227           
   7  AA 7 VAL A 193  ALA A 197 -1  N  THR A 194   O  VAL A 202           
   1  AB 2 GLU A  62  TYR A  63  0                                        
   2  AB 2 ILE A 161  SER A 162 -1  O  ILE A 161   N  TYR A  63           
   1  AC 2 VAL A  89  PHE A  90  0                                        
   2  AC 2 LEU A 106  THR A 107 -1  O  LEU A 106   N  PHE A  90           
   1  BA 7 SER B  21  GLU B  24  0                                        
   2  BA 7 SER B  50  THR B  53  1  O  CYS B  51   N  THR B  23           
   3  BA 7 GLY B  39  LYS B  45 -1  O  LEU B  43   N  ALA B  52           
   4  BA 7 GLU B 231  ILE B 241 -1  O  PHE B 234   N  CYS B  44           
   5  BA 7 GLY B 218  LYS B 228 -1  O  GLY B 218   N  ILE B 241           
   6  BA 7 TYR B 200  PHE B 208 -1  O  LEU B 201   N  GLU B 227           
   7  BA 7 VAL B 193  ALA B 196 -1  N  THR B 194   O  VAL B 202           
   1  BB 2 GLU B  62  TYR B  63  0                                        
   2  BB 2 ILE B 161  SER B 162 -1  O  ILE B 161   N  TYR B  63           
   1  BC 2 VAL B  89  PHE B  90  0                                        
   2  BC 2 LEU B 106  THR B 107 -1  O  LEU B 106   N  PHE B  90           

>  <SSBOND>
   1 CYS A   44    CYS A   51                          1555   1555  2.04  
   2 CYS B   44    CYS B   51                          1555   1555  2.07  

>  <LINK>
       OG  SER A  67                 C15AZZ7 A1265     1555   1555  1.39  
       OG  SER B  67                 C15AZZ7 B1265     1555   1555  1.40  

>  <SITE>
   1 AC1 17 ALA A  66  SER A  67  MET A  99  TRP A 102                    
   2 AC1 17 SER A 115  VAL A 117  GLU A 129  LEU A 155                    
   3 AC1 17 THR A 206  GLY A 207  PHE A 208  SER A 209                    
   4 AC1 17 LEU A 247  ARG A 250  HOH A2125  HOH A2136                    
   5 AC1 17 HOH A2148                                                     
   1 AC2  3 ARG A 160  HOH A2150  HOH A2151                               
   1 AC3  6 MET A  99  LYS A 100  SER A 147  GLY A 148                    
   2 AC3  6 HOH A2152  HOH A2153                                          
   1 AC4  7 SER A  67  SER A 115  LYS A 205  THR A 206                    
   2 AC4  7 GLY A 207  PHE A 208  ARG A 250                               
   1 AC5 10 ALA B  66  SER B  67  MET B  99  SER B 115                    
   2 AC5 10 VAL B 117  GLY B 207  PHE B 208  SER B 209                    
   3 AC5 10 GLY B 210  ARG B 250                                          
   1 AC6  4 THR B  80  ARG B 131  LYS B 134  TYR B 135                    
   1 AC7  7 SER B  67  SER B 115  LYS B 205  THR B 206                    
   2 AC7  7 GLY B 207  PHE B 208  ARG B 250                               

>  <ORIGX1>
      1.000000  0.000000  0.000000        0.00000                         

>  <ORIGX2>
      0.000000  1.000000  0.000000        0.00000                         

>  <ORIGX3>
      0.000000  0.000000  1.000000        0.00000                         

>  <SCALE1>
      0.020442  0.000000  0.000000        0.00000                         

>  <SCALE2>
      0.000000  0.010300  0.000000        0.00000                         

>  <SCALE3>
      0.000000  0.000000  0.007928        0.00000                         

>  <ANISOU>
  360  N   SER A  67     1347   1575   1230     68     -5   -238       N  
  361  CA  SER A  67     2229   2424   2068    103      2   -248       C  
  362  C   SER A  67     1637   1846   1455    113     23   -247       C  
  363  O   SER A  67     2018   2203   1801    141     25   -253       O  
  364  CB  SER A  67     3847   3992   3659    128     24   -258       C  
  365  OG  SER A  67     5564   5693   5394    124      0   -259       O  

>  <MASTER>
      588    0    7   25   22    0   16    6 4298    2   79   40          

$$$$
