@<TRIPOS>MOLECULE
FYG
   28    29     1     0     0
SMALL
bcc


@<TRIPOS>ATOM
      1 C15         -3.4020    -0.3810    -0.3760 C          1 FYG       0.660100
      2 C01         -0.7330    -1.1380     1.1730 CT         1 FYG      -0.073400
      3 C02         -1.0720    -1.3870    -0.2900 CT         1 FYG      -0.105400
      4 C03         -1.9760    -0.2420    -0.8440 CT         1 FYG      -0.044300
      5 C05         -1.5660     1.1860     1.2410 CT         1 FYG      -0.026000
      6 C06         -0.3170     0.2750     1.5740 CT         1 FYG      -0.005300
      7 C08         -0.1240     1.4430    -0.3890 C          1 FYG       0.692500
      8 N04         -1.3060     0.8700    -0.1980 N          1 FYG      -0.327800
      9 N07          0.6430     0.8450     0.5850 N          1 FYG      -0.185300
     10 N17         -4.1080    -1.4870    -0.6860 N          1 FYG      -0.657000
     11 O09          0.1980     2.2790    -1.2120 O          1 FYG      -0.544500
     12 O10          2.0560     0.7830     0.6380 OS         1 FYG      -0.440800
     13 O12          1.7790    -1.5230     0.2370 O          1 FYG      -0.636800
     14 O13          2.5550    -0.1980    -1.5510 OH         1 FYG      -0.786700
     15 O14          4.0340    -0.4460     0.2680 O          1 FYG      -0.636800
     16 O16         -3.9130     0.5000     0.2830 O          1 FYG      -0.611100
     17 S11          2.6490    -0.4380    -0.0510 SO         1 FYG       1.884000
     18 H1          -1.6050    -1.4110     1.7680 HC         1 FYG       0.069700
     19 H2           0.0770    -1.8140     1.4460 HC         1 FYG       0.069700
     20 H3          -0.1510    -1.4310    -0.8700 HC         1 FYG       0.075200
     21 H4          -1.6000    -2.3370    -0.3800 HC         1 FYG       0.075200
     22 H5          -1.9180    -0.1720    -1.9300 H1         1 FYG       0.094700
     23 H6          -2.5100     0.7870     1.6130 H1         1 FYG       0.090700
     24 H7          -1.4210     2.2370     1.4930 H1         1 FYG       0.090700
     25 H8           0.0130     0.3470     2.6100 H1         1 FYG       0.105700
     26 H9          -3.6980    -2.1930    -1.2100 H          1 FYG       0.320500
     27 H10         -5.0250    -1.5760    -0.3850 H          1 FYG       0.320500
     28 H11          2.9080    -0.9210    -2.0880 HO         1 FYG       0.532000
@<TRIPOS>BOND
     1     1     4 1   
     2     1    10 1   
     3     1    16 2   
     4     2     3 1   
     5     2     6 1   
     6     2    18 1   
     7     2    19 1   
     8     3     4 1   
     9     3    20 1   
    10     3    21 1   
    11     4     8 1   
    12     4    22 1   
    13     5     6 1   
    14     5     8 1   
    15     5    23 1   
    16     5    24 1   
    17     6     9 1   
    18     6    25 1   
    19     7     8 1   
    20     7     9 1   
    21     7    11 2   
    22     9    12 1   
    23    10    26 1   
    24    10    27 1   
    25    12    17 1   
    26    13    17 2   
    27    14    17 1   
    28    14    28 1   
    29    15    17 2   
@<TRIPOS>SUBSTRUCTURE
     1 FYG         1 TEMP              0 ****  ****    0 ROOT
