REMARK  9 active torsions:
REMARK  status: ('A' for Active; 'I' for Inactive)
REMARK    1  A    between atoms: B_1  and  C_4 
REMARK    2  A    between atoms: B_1  and  O_2 
REMARK    3  A    between atoms: B_1  and  O_3 
REMARK    4  A    between atoms: C_4  and  N_5 
REMARK    5  A    between atoms: N_5  and  S_6 
REMARK    6  A    between atoms: S_6  and  C_9 
REMARK    7  A    between atoms: C_9  and  C_10 
REMARK    8  A    between atoms: C_14  and  C_15 
REMARK    9  A    between atoms: C_15  and  O_16 
ROOT
HETATM    1  S   UNL     1       1.138   0.005   0.820  1.00  0.00     0.230 S 
HETATM    2  O   UNL     1       0.612  -1.108   1.530  1.00  0.00    -0.206 OA
HETATM    3  O   UNL     1       1.274   1.274   1.445  1.00  0.00    -0.206 OA
ENDROOT
BRANCH   1   4
HETATM    4  N   UNL     1       2.690  -0.440   0.456  1.00  0.00    -0.322 N 
HETATM    5  H   UNL     1       3.020  -1.313   0.721  1.00  0.00     0.171 HD
BRANCH   4   6
HETATM    6  C   UNL     1       3.566   0.485  -0.268  1.00  0.00     0.152 C 
BRANCH   6   7
HETATM    7  B   UNL     1       4.928  -0.228  -0.590  1.00  0.00     0.510 B 
BRANCH   7   8
HETATM    8  O   UNL     1       5.969  -0.241   0.376  1.00  0.00    -0.436 OA
HETATM    9  H   UNL     1       5.778   0.282   1.166  1.00  0.00     0.184 HD
ENDBRANCH   7   8
BRANCH   7  10
HETATM   10  O   UNL     1       5.116  -0.865  -1.845  1.00  0.00    -0.436 OA
HETATM   11  H   UNL     1       5.983  -1.280  -1.950  1.00  0.00     0.184 HD
ENDBRANCH   7  10
ENDBRANCH   6   7
ENDBRANCH   4   6
ENDBRANCH   1   4
BRANCH   1  12
HETATM   12  C   UNL     1       0.324   0.173  -0.793  1.00  0.00     0.201 C 
BRANCH  12  13
HETATM   13  C   UNL     1      -1.113   0.580  -0.590  1.00  0.00    -0.042 A 
HETATM   14  C   UNL     1      -1.450   1.921  -0.539  1.00  0.00     0.008 A 
HETATM   15  C   UNL     1      -2.767   2.303  -0.354  1.00  0.00     0.002 A 
HETATM   16  C   UNL     1      -3.753   1.349  -0.219  1.00  0.00     0.018 A 
HETATM   17  C   UNL     1      -3.420  -0.007  -0.270  1.00  0.00     0.038 A 
HETATM   18  C   UNL     1      -2.090  -0.385  -0.463  1.00  0.00     0.026 A 
BRANCH  17  19
HETATM   19  C   UNL     1      -4.470  -1.035  -0.126  1.00  0.00     0.176 C 
HETATM   20  O   UNL     1      -4.178  -2.213  -0.170  1.00  0.00    -0.646 OA
BRANCH  19  21
HETATM   21  O   UNL     1      -5.753  -0.666   0.055  1.00  0.00    -0.773 OA
HETATM   22  H   UNL     1      -6.406  -1.375   0.144  1.00  0.00     0.167 HD
ENDBRANCH  19  21
ENDBRANCH  17  19
ENDBRANCH  12  13
ENDBRANCH   1  12
TORSDOF 9
