REMARK  7 active torsions:
REMARK  status: ('A' for Active; 'I' for Inactive)
REMARK    1  A    between atoms: B_1  and  C_4 
REMARK    2  A    between atoms: B_1  and  O_3 
REMARK    3  A    between atoms: B_1  and  O_2 
REMARK    4  A    between atoms: C_4  and  N_5 
REMARK    5  A    between atoms: N_5  and  S_6 
REMARK    6  A    between atoms: S_6  and  C_9 
REMARK    7  A    between atoms: C_12  and  C_13 
ROOT
HETATM    1  C   UNL     1       0.286   0.979  -0.125  1.00  0.00     0.097 A 
HETATM    2  C   UNL     1      -0.270   0.430  -1.271  1.00  0.00     0.029 A 
HETATM    3  C   UNL     1      -1.584  -0.004  -1.226  1.00  0.00     0.037 A 
HETATM    4  C   UNL     1      -2.300   0.127  -0.037  1.00  0.00     0.105 A 
HETATM    5  N   UNL     1      -1.730   0.659   1.038  1.00  0.00    -0.256 NA
HETATM    6  C   UNL     1      -0.482   1.079   1.021  1.00  0.00     0.142 A 
ENDROOT
BRANCH   1   7
HETATM    7  S   UNL     1       1.956   1.539  -0.128  1.00  0.00     0.259 S 
HETATM    8  O   UNL     1       2.282   1.826  -1.481  1.00  0.00    -0.201 OA
HETATM    9  O   UNL     1       2.060   2.498   0.916  1.00  0.00    -0.201 OA
BRANCH   7  10
HETATM   10  N   UNL     1       2.904   0.257   0.320  1.00  0.00    -0.319 N 
HETATM   11  H   UNL     1       3.403   0.289   1.151  1.00  0.00     0.171 HD
BRANCH  10  12
HETATM   12  C   UNL     1       2.988  -0.927  -0.540  1.00  0.00     0.152 C 
BRANCH  12  13
HETATM   13  B   UNL     1       3.947  -1.982   0.116  1.00  0.00     0.510 B 
BRANCH  13  14
HETATM   14  O   UNL     1       3.738  -3.369  -0.111  1.00  0.00    -0.436 OA
HETATM   15  H   UNL     1       4.376  -3.941   0.338  1.00  0.00     0.184 HD
ENDBRANCH  13  14
BRANCH  13  16
HETATM   16  O   UNL     1       5.020  -1.552   0.941  1.00  0.00    -0.436 OA
HETATM   17  H   UNL     1       5.082  -0.591   1.036  1.00  0.00     0.184 HD
ENDBRANCH  13  16
ENDBRANCH  12  13
ENDBRANCH  10  12
ENDBRANCH   7  10
ENDBRANCH   1   7
BRANCH   4  18
HETATM   18  C   UNL     1      -3.706  -0.332   0.028  1.00  0.00     0.198 A 
HETATM   19  N   UNL     1      -4.531  -0.270   1.100  1.00  0.00    -0.238 N 
HETATM   20  N   UNL     1      -5.664  -0.767   0.734  1.00  0.00    -0.046 NA
HETATM   21  H   UNL     1      -4.311   0.083   1.977  1.00  0.00     0.192 HD
HETATM   22  N   UNL     1      -5.585  -1.131  -0.497  1.00  0.00    -0.023 NA
HETATM   23  N   UNL     1      -4.405  -0.877  -0.949  1.00  0.00    -0.107 NA
ENDBRANCH   4  18
TORSDOF 7
