REMARK  8 active torsions:
REMARK  status: ('A' for Active; 'I' for Inactive)
REMARK    1  A    between atoms: B_1  and  C_4 
REMARK    2  A    between atoms: B_1  and  O_2 
REMARK    3  A    between atoms: B_1  and  O_3 
REMARK    4  A    between atoms: C_4  and  N_5 
REMARK    5  A    between atoms: N_5  and  S_6 
REMARK    6  A    between atoms: S_6  and  C_9 
REMARK    7  A    between atoms: C_12  and  C_13 
REMARK    8  A    between atoms: C_19  and  C_20 
ROOT
HETATM    1  C   UNL     1      -0.141   0.306   0.989  1.00  0.00     0.094 A 
HETATM    2  C   UNL     1       0.632  -0.448   1.853  1.00  0.00     0.027 A 
HETATM    3  C   UNL     1       1.948  -0.725   1.544  1.00  0.00     0.017 A 
HETATM    4  C   UNL     1       2.498  -0.243   0.357  1.00  0.00     0.014 A 
HETATM    5  C   UNL     1       1.714   0.517  -0.511  1.00  0.00     0.033 A 
HETATM    6  C   UNL     1       0.400   0.787  -0.191  1.00  0.00     0.072 A 
ENDROOT
BRANCH   1   7
HETATM    7  S   UNL     1      -1.822   0.650   1.388  1.00  0.00     0.259 S 
HETATM    8  O   UNL     1      -2.072   0.031   2.642  1.00  0.00    -0.201 OA
HETATM    9  O   UNL     1      -2.015   2.039   1.154  1.00  0.00    -0.201 OA
BRANCH   7  10
HETATM   10  N   UNL     1      -2.761  -0.145   0.279  1.00  0.00    -0.319 N 
HETATM   11  H   UNL     1      -3.344   0.357  -0.312  1.00  0.00     0.171 HD
BRANCH  10  12
HETATM   12  C   UNL     1      -2.713  -1.607   0.192  1.00  0.00     0.152 C 
BRANCH  12  13
HETATM   13  B   UNL     1      -3.790  -2.106  -0.836  1.00  0.00     0.510 B 
BRANCH  13  14
HETATM   14  O   UNL     1      -3.567  -3.298  -1.574  1.00  0.00    -0.436 OA
HETATM   15  H   UNL     1      -4.287  -3.526  -2.178  1.00  0.00     0.184 HD
ENDBRANCH  13  14
BRANCH  13  16
HETATM   16  O   UNL     1      -4.989  -1.368  -1.022  1.00  0.00    -0.436 OA
HETATM   17  H   UNL     1      -5.050  -0.572  -0.476  1.00  0.00     0.184 HD
ENDBRANCH  13  16
ENDBRANCH  12  13
ENDBRANCH  10  12
ENDBRANCH   7  10
ENDBRANCH   1   7
BRANCH   6  18
HETATM   18  C   UNL     1      -0.451   1.603  -1.130  1.00  0.00     0.419 C 
HETATM   19  F   UNL     1       0.264   1.857  -2.305  1.00  0.00    -0.166 F 
HETATM   20  F   UNL     1      -0.789   2.815  -0.519  1.00  0.00    -0.166 F 
HETATM   21  F   UNL     1      -1.617   0.895  -1.437  1.00  0.00    -0.166 F 
ENDBRANCH   6  18
BRANCH   4  22
HETATM   22  C   UNL     1       3.909  -0.537   0.019  1.00  0.00     0.179 A 
HETATM   23  N   UNL     1       4.551  -0.152  -1.064  1.00  0.00    -0.108 NA
HETATM   24  N   UNL     1       5.763  -0.575  -1.042  1.00  0.00    -0.023 NA
HETATM   25  N   UNL     1       5.982  -1.256   0.030  1.00  0.00    -0.046 NA
HETATM   26  N   UNL     1       4.783  -1.259   0.764  1.00  0.00    -0.239 N 
HETATM   27  H   UNL     1       4.616  -1.685   1.619  1.00  0.00     0.192 HD
ENDBRANCH   4  22
TORSDOF 8
