REMARK  13 active torsions:
REMARK  status: ('A' for Active; 'I' for Inactive)
REMARK    1  A    between atoms: C_6  and  C_7 
REMARK    2  A    between atoms: C_7  and  C_8 
REMARK    3  A    between atoms: C_8  and  O_10 
REMARK    4  A    between atoms: O_10  and  C_11 
REMARK    5  A    between atoms: C_11  and  C_12 
REMARK    6  A    between atoms: C_12  and  S_13 
REMARK    7  A    between atoms: C_12  and  CA_17 
REMARK    8  A    between atoms: S_13  and  O_15 
REMARK    9  A    between atoms: CA_17  and  N_21 
REMARK   10  A    between atoms: CA_17  and  C_18 
REMARK   11  A    between atoms: C_18  and  OXT_19 
REMARK   12  A    between atoms: N_21  and  C_22 
REMARK   13  A    between atoms: C_30  and  C_31 
ROOT
HETATM    1  CA  UNL     1       1.399  -0.045   0.719  1.00  0.00     0.184 C 
ENDROOT
BRANCH   1   2
HETATM    2  C   UNL     1       0.189   0.870   0.515  1.00  0.00     0.107 C 
HETATM    3  C   UNL     1       0.064   1.823   1.706  1.00  0.00     0.036 C 
BRANCH   2   4
HETATM    4  C   UNL     1      -1.079   0.022   0.406  1.00  0.00     0.206 C 
BRANCH   4   5
HETATM    5  O   UNL     1      -2.227   0.890   0.213  1.00  0.00    -0.319 OA
BRANCH   5   6
HETATM    6  C   UNL     1      -3.426   0.298   0.097  1.00  0.00     0.263 C 
HETATM    7  O   UNL     1      -3.514  -0.906   0.155  1.00  0.00    -0.265 OA
BRANCH   6   8
HETATM    8  C   UNL     1      -4.663   1.134  -0.105  1.00  0.00     0.149 C 
BRANCH   8   9
HETATM    9  C   UNL     1      -5.868   0.234  -0.204  1.00  0.00    -0.049 A 
HETATM   10  C   UNL     1      -6.568  -0.111   0.937  1.00  0.00     0.007 A 
HETATM   11  C   UNL     1      -7.676  -0.932   0.846  1.00  0.00     0.001 A 
HETATM   12  C   UNL     1      -8.085  -1.408  -0.386  1.00  0.00     0.000 A 
HETATM   13  C   UNL     1      -7.384  -1.062  -1.527  1.00  0.00     0.001 A 
HETATM   14  C   UNL     1      -6.277  -0.241  -1.436  1.00  0.00     0.007 A 
ENDBRANCH   8   9
ENDBRANCH   6   8
ENDBRANCH   5   6
ENDBRANCH   4   5
ENDBRANCH   2   4
BRANCH   2  15
HETATM   15  S   UNL     1       0.407   1.831  -1.008  1.00  0.00     0.164 S 
HETATM   16  O   UNL     1      -0.811   2.487  -1.332  1.00  0.00    -0.228 OA
BRANCH  15  17
HETATM   17  O   UNL     1       0.514   0.756  -2.079  1.00  0.00    -0.305 OA
HETATM   18  H   UNL     1       0.636   1.102  -2.974  1.00  0.00     0.230 HD
ENDBRANCH  15  17
ENDBRANCH   2  15
ENDBRANCH   1   2
BRANCH   1  19
HETATM   19  N   UNL     1       2.599   0.773   0.943  1.00  0.00    -0.262 NA
HETATM   20  H   UNL     1       2.427   1.739   0.708  1.00  0.00     0.130 HD
BRANCH  19  21
HETATM   21  C   UNL     1       3.677   0.274   0.236  1.00  0.00     0.101 A 
HETATM   22  N   UNL     1       3.824  -1.006  -0.196  1.00  0.00    -0.312 N 
HETATM   23  C   UNL     1       3.006  -2.109  -0.070  1.00  0.00     0.098 A 
HETATM   24  C   UNL     1       5.034  -1.118  -0.865  1.00  0.00     0.041 A 
HETATM   25  C   UNL     1       3.368  -3.294  -0.590  1.00  0.00     0.018 A 
HETATM   26  C   UNL     1       4.594  -3.434  -1.275  1.00  0.00     0.004 A 
HETATM   27  C   UNL     1       5.417  -2.366  -1.413  1.00  0.00     0.030 A 
HETATM   28  C   UNL     1       5.652   0.099  -0.854  1.00  0.00     0.048 A 
HETATM   29  C   UNL     1       4.800   1.000  -0.162  1.00  0.00     0.043 A 
BRANCH  29  30
HETATM   30  C   UNL     1       5.045   2.373   0.080  1.00  0.00     0.273 C 
HETATM   31  O   UNL     1       4.232   3.036   0.690  1.00  0.00    -0.301 OA
ENDBRANCH  29  30
ENDBRANCH  19  21
ENDBRANCH   1  19
BRANCH   1  32
HETATM   32  C   UNL     1       1.163  -0.931   1.915  1.00  0.00     0.160 C 
HETATM   33  O   UNL     1       1.918  -0.886   2.858  1.00  0.00    -0.649 OA
BRANCH  32  34
HETATM   34  OXT UNL     1       0.116  -1.770   1.933  1.00  0.00    -0.775 OA
HETATM   35  HXT UNL     1       0.006  -2.318   2.722  1.00  0.00     0.167 HD
ENDBRANCH  32  34
ENDBRANCH   1  32
TORSDOF 13
