REMARK  9 active torsions:
REMARK  status: ('A' for Active; 'I' for Inactive)
REMARK    1  A    between atoms: C_2  and  O_5 
REMARK    2  A    between atoms: O_5  and  C_6 
REMARK    3  A    between atoms: C_6  and  C_8 
REMARK    4  A    between atoms: C_9  and  C_10 
REMARK    5  A    between atoms: CA_14  and  C_15 
REMARK    6  A    between atoms: C_15  and  OXT_16 
REMARK    7  A    between atoms: C_18  and  C_23 
REMARK    8  A    between atoms: C_23  and  O_24 
REMARK    9  A    between atoms: O_24  and  C_25 
ROOT
HETATM    1  C   UNL     1      -1.577  -0.394  -0.690  1.00  0.00     0.223 C 
HETATM    2  C   UNL     1      -0.985   1.000  -0.825  1.00  0.00     0.116 C 
HETATM    3  C   UNL     1      -0.830   1.538   0.582  1.00  0.00     0.104 C 
HETATM    4  N   UNL     1       0.301   1.470   1.190  1.00  0.00    -0.257 NA
HETATM    5  CA  UNL     1       1.436   1.021   0.628  1.00  0.00     0.134 C 
HETATM    6  C   UNL     1       1.766  -0.035  -0.020  1.00  0.00    -0.006 C 
HETATM    7  C   UNL     1       1.071  -1.311  -0.390  1.00  0.00     0.180 C 
HETATM    8  S   UNL     1      -0.556  -1.408   0.416  1.00  0.00     0.162 S 
HETATM    9  O   UNL     1      -1.014  -2.752   0.351  1.00  0.00    -0.227 OA
HETATM   10  O   UNL     1      -0.476  -0.762   1.679  1.00  0.00    -0.227 OA
ENDROOT
BRANCH   1  11
HETATM   11  C   UNL     1      -2.971  -0.292  -0.127  1.00  0.00     0.279 C 
HETATM   12  O   UNL     1      -3.153  -0.411   1.062  1.00  0.00    -0.264 OA
BRANCH  11  13
HETATM   13  O   UNL     1      -4.010  -0.068  -0.946  1.00  0.00    -0.310 OA
BRANCH  13  14
HETATM   14  C   UNL     1      -5.325   0.019  -0.334  1.00  0.00     0.060 C 
HETATM   15  C   UNL     1      -5.342   1.168   0.675  1.00  0.00     0.045 C 
HETATM   16  C   UNL     1      -5.641  -1.295   0.383  1.00  0.00     0.045 C 
HETATM   17  C   UNL     1      -6.375   0.275  -1.417  1.00  0.00     0.045 C 
ENDBRANCH  13  14
ENDBRANCH  11  13
ENDBRANCH   1  11
BRANCH   2  18
HETATM   18  C   UNL     1       0.359   0.927  -1.502  1.00  0.00     0.242 C 
HETATM   19  O   UNL     1       1.063   1.907  -1.554  1.00  0.00    -0.306 OA
ENDBRANCH   2  18
BRANCH   6  20
HETATM   20  C   UNL     1       3.184   0.020  -0.530  1.00  0.00     0.216 C 
BRANCH  20  21
HETATM   21  O   UNL     1       3.929  -1.113  -0.010  1.00  0.00    -0.317 OA
BRANCH  21  22
HETATM   22  C   UNL     1       5.187  -1.269  -0.451  1.00  0.00     0.255 C 
HETATM   23  O   UNL     1       5.650  -0.486  -1.245  1.00  0.00    -0.266 OA
HETATM   24  C   UNL     1       6.021  -2.422   0.044  1.00  0.00     0.126 C 
ENDBRANCH  21  22
ENDBRANCH  20  21
ENDBRANCH   6  20
BRANCH   5  25
HETATM   25  C   UNL     1       2.563   1.960   0.796  1.00  0.00     0.196 C 
HETATM   26  O   UNL     1       3.280   1.880   1.774  1.00  0.00    -0.645 OA
BRANCH  25  27
HETATM   27  OXT UNL     1       2.796   2.906  -0.135  1.00  0.00    -0.772 OA
HETATM   28  HXT UNL     1       3.545   3.497   0.019  1.00  0.00     0.167 HD
ENDBRANCH  25  27
ENDBRANCH   5  25
TORSDOF 9
