REMARK  9 active torsions:
REMARK  status: ('A' for Active; 'I' for Inactive)
REMARK    1  A    between atoms: N_1  and  C_2 
REMARK    2  A    between atoms: C_2  and  C_3 
REMARK    3  A    between atoms: C_2  and  C_5 
REMARK    4  A    between atoms: C_3  and  O_12 
REMARK    5  A    between atoms: C_5  and  O_6 
REMARK    6  A    between atoms: O_6  and  C_7 
REMARK    7  A    between atoms: C_7  and  C_9 
REMARK    8  A    between atoms: C_9  and  C_10 
REMARK    9  A    between atoms: C_10  and  N_11 
ROOT
HETATM    1  C   UNK     1       0.720  -0.274  -0.114  1.00  0.00     0.225 C 
ENDROOT
BRANCH   1   2
HETATM    2  C   UNK     1       1.912   0.519   0.427  1.00  0.00     0.338 C 
BRANCH   2   3
HETATM    3  N   UNK     1       1.931   1.854  -0.186  1.00  0.00     0.095 N 
HETATM    4  H   UNK     1       2.670   2.420   0.202  1.00  0.00     0.314 HD
HETATM    5  H   UNK     1       2.014   1.790  -1.190  1.00  0.00     0.314 HD
ENDBRANCH   2   3
BRANCH   2   6
HETATM    6  C   UNK     1       3.191  -0.205   0.094  1.00  0.00     0.176 C 
HETATM    7  O   UNK     1       3.859   0.152  -0.847  1.00  0.00    -0.648 OA
BRANCH   6   8
HETATM    8  O   UNK     1       3.587  -1.247   0.842  1.00  0.00    -0.775 OA
HETATM    9  H   UNK     1       4.414  -1.679   0.589  1.00  0.00     0.167 HD
ENDBRANCH   6   8
ENDBRANCH   2   6
ENDBRANCH   1   2
BRANCH   1  10
HETATM   10  O   UNK     1      -0.496   0.351   0.302  1.00  0.00    -0.315 OA
BRANCH  10  11
HETATM   11  C   UNK     1      -1.648  -0.229  -0.095  1.00  0.00     0.284 C 
HETATM   12  O   UNK     1      -1.620  -1.237  -0.775  1.00  0.00    -0.260 OA
BRANCH  11  13
HETATM   13  C   UNK     1      -2.887   0.335   0.280  1.00  0.00     0.098 C 
BRANCH  13  14
HETATM   14  C   UNK     1      -4.041  -0.244  -0.116  1.00  0.00     0.086 C 
BRANCH  14  15
HETATM   15  N   UNK     1      -5.239   0.302   0.246  1.00  0.00    -0.408 N 
HETATM   16  H   UNK     1      -5.262   1.105   0.789  1.00  0.00     0.155 HD
HETATM   17  H   UNK     1      -6.068  -0.115  -0.039  1.00  0.00     0.155 HD
ENDBRANCH  14  15
ENDBRANCH  13  14
ENDBRANCH  11  13
ENDBRANCH  10  11
ENDBRANCH   1  10
TORSDOF 9
