REMARK  5 active torsions:
REMARK  status: ('A' for Active; 'I' for Inactive)
REMARK    1  A    between atoms: B_1  and  O_2 
REMARK    2  A    between atoms: B_1  and  O_3 
REMARK    3  A    between atoms: B_1  and  C_4 
REMARK    4  A    between atoms: C_6  and  C_7 
REMARK    5  A    between atoms: C_12  and  C_13 
ROOT
HETATM    1  C   UNL     1       0.000   1.520   0.000  1.00  0.00    -0.031 A 
HETATM    2  C   UNL     1       1.206   0.821   0.000  1.00  0.00     0.008 A 
HETATM    3  C   UNL     1       1.200  -0.559   0.000  1.00  0.00    -0.050 A 
HETATM    4  C   UNL     1       0.000  -1.248   0.000  1.00  0.00     0.015 A 
HETATM    5  C   UNL     1      -1.200  -0.559   0.000  1.00  0.00    -0.050 A 
HETATM    6  C   UNL     1      -1.206   0.821   0.006  1.00  0.00     0.008 A 
ENDROOT
BRANCH   1   7
HETATM    7  B   UNL     1       0.000   3.091   0.001  1.00  0.00     0.529 B 
BRANCH   7   8
HETATM    8  O   UNL     1       1.230   3.801   0.001  1.00  0.00    -0.433 OA
HETATM    9  H   UNL     1       1.129   4.762   0.002  1.00  0.00     0.185 HD
ENDBRANCH   7   8
BRANCH   7  10
HETATM   10  O   UNL     1      -1.230   3.800  -0.004  1.00  0.00    -0.433 OA
HETATM   11  H   UNL     1      -1.129   4.762  -0.003  1.00  0.00     0.185 HD
ENDBRANCH   7  10
ENDBRANCH   1   7
BRANCH   5  12
HETATM   12  C   UNL     1      -2.503  -1.316   0.000  1.00  0.00    -0.024 C 
HETATM   13  C   UNL     1      -2.581  -2.196  -1.250  1.00  0.00     0.019 C 
HETATM   14  C   UNL     1      -3.669  -0.326   0.000  1.00  0.00     0.019 C 
HETATM   15  C   UNL     1      -2.581  -2.197   1.249  1.00  0.00     0.019 C 
ENDBRANCH   5  12
BRANCH   3  16
HETATM   16  C   UNL     1       2.503  -1.316   0.000  1.00  0.00    -0.024 C 
HETATM   17  C   UNL     1       2.581  -2.196  -1.250  1.00  0.00     0.019 C 
HETATM   18  C   UNL     1       3.669  -0.326   0.000  1.00  0.00     0.019 C 
HETATM   19  C   UNL     1       2.581  -2.196   1.249  1.00  0.00     0.019 C 
ENDBRANCH   3  16
TORSDOF 5
