REMARK  18 active torsions:
REMARK  status: ('A' for Active; 'I' for Inactive)
REMARK    1  A    between atoms: O_1  and  C_2 
REMARK    2  A    between atoms: C_2  and  C_4 
REMARK    3  A    between atoms: C_4  and  C_5 
REMARK    4  A    between atoms: C_5  and  C_6 
REMARK    5  A    between atoms: C_6  and  C_7 
REMARK    6  A    between atoms: C_7  and  C_8 
REMARK    7  A    between atoms: C_8  and  O_10 
REMARK    8  A    between atoms: O_10  and  C_11 
REMARK    9  A    between atoms: C_11  and  C_12 
REMARK   10  A    between atoms: C_12  and  S_14 
REMARK   11  A    between atoms: C_12  and  CA_17 
REMARK   12  A    between atoms: S_14  and  O_16 
REMARK   13  A    between atoms: CA_17  and  N_21 
REMARK   14  A    between atoms: CA_17  and  C_18 
REMARK   15  A    between atoms: C_18  and  OXT_19 
REMARK   16  A    between atoms: N_21  and  C_22 
REMARK   17  A    between atoms: C_22  and  C_23 
REMARK   18  A    between atoms: C_23  and  C_24 
ROOT
HETATM    1  C   UNL     1       1.598   0.053   0.419  1.00  0.00     0.122 C 
HETATM    2  C   UNL     1       1.547  -0.170   1.932  1.00  0.00     0.037 C 
ENDROOT
BRANCH   1   3
HETATM    3  C   UNL     1       0.357  -0.563  -0.229  1.00  0.00     0.206 C 
BRANCH   3   4
HETATM    4  O   UNL     1      -0.835   0.066   0.312  1.00  0.00    -0.320 OA
BRANCH   4   5
HETATM    5  C   UNL     1      -2.017  -0.363  -0.156  1.00  0.00     0.258 C 
HETATM    6  O   UNL     1      -2.055  -1.236  -0.991  1.00  0.00    -0.265 OA
BRANCH   5   7
HETATM    7  C   UNL     1      -3.297   0.243   0.359  1.00  0.00     0.111 C 
BRANCH   7   8
HETATM    8  C   UNL     1      -4.490  -0.420  -0.332  1.00  0.00     0.010 C 
BRANCH   8   9
HETATM    9  C   UNL     1      -5.789   0.195   0.191  1.00  0.00     0.011 C 
BRANCH   9  10
HETATM   10  C   UNL     1      -6.982  -0.468  -0.501  1.00  0.00     0.110 C 
BRANCH  10  11
HETATM   11  C   UNL     1      -8.262   0.139   0.015  1.00  0.00     0.139 C 
HETATM   12  O   UNL     1      -8.224   1.011   0.850  1.00  0.00    -0.650 OA
BRANCH  11  13
HETATM   13  O   UNL     1      -9.444  -0.291  -0.453  1.00  0.00    -0.776 OA
HETATM   14  H   UNL     1     -10.238   0.128  -0.093  1.00  0.00     0.167 HD
ENDBRANCH  11  13
ENDBRANCH  10  11
ENDBRANCH   9  10
ENDBRANCH   8   9
ENDBRANCH   7   8
ENDBRANCH   5   7
ENDBRANCH   4   5
ENDBRANCH   3   4
ENDBRANCH   1   3
BRANCH   1  15
HETATM   15  S   UNL     1       1.643   1.832   0.071  1.00  0.00     0.164 S 
HETATM   16  O   UNL     1       0.377   2.405   0.370  1.00  0.00    -0.228 OA
BRANCH  15  17
HETATM   17  O   UNL     1       1.691   1.883  -1.449  1.00  0.00    -0.305 OA
HETATM   18  H   UNL     1       1.720   2.779  -1.812  1.00  0.00     0.230 HD
ENDBRANCH  15  17
ENDBRANCH   1  15
BRANCH   1  19
HETATM   19  CA  UNL     1       2.854  -0.610  -0.151  1.00  0.00     0.341 C 
BRANCH  19  20
HETATM   20  N   UNL     1       4.038  -0.105   0.556  1.00  0.00     0.100 N 
HETATM   21  H   UNL     1       3.899   0.846   0.861  1.00  0.00     0.317 HD
BRANCH  20  22
HETATM   22  C   UNL     1       5.240  -0.219  -0.282  1.00  0.00     0.277 C 
BRANCH  22  23
HETATM   23  C   UNL     1       6.450   0.315   0.486  1.00  0.00     0.099 C 
BRANCH  23  24
HETATM   24  C   UNL     1       7.682   0.199  -0.373  1.00  0.00     0.232 C 
HETATM   25  O   UNL     1       8.360   1.174  -0.592  1.00  0.00    -0.307 OA
ENDBRANCH  23  24
ENDBRANCH  22  23
ENDBRANCH  20  22
ENDBRANCH  19  20
BRANCH  19  26
HETATM   26  C   UNL     1       2.759  -2.103   0.029  1.00  0.00     0.176 C 
HETATM   27  O   UNL     1       3.593  -2.687   0.679  1.00  0.00    -0.648 OA
BRANCH  26  28
HETATM   28  OXT UNL     1       1.749  -2.785  -0.534  1.00  0.00    -0.775 OA
HETATM   29  HXT UNL     1       1.731  -3.741  -0.390  1.00  0.00     0.167 HD
ENDBRANCH  26  28
ENDBRANCH  19  26
ENDBRANCH   1  19
TORSDOF 18
