REMARK  12 active torsions:
REMARK  status: ('A' for Active; 'I' for Inactive)
REMARK    1  A    between atoms: C_1  and  C_4 
REMARK       I    between atoms: C_1  and  N_24 
REMARK    2  A    between atoms: C_7  and  S_18 
REMARK    3  A    between atoms: C_8  and  C_9 
REMARK    4  A    between atoms: C_9  and  C_11 
REMARK    5  A    between atoms: C_9  and  C_12 
REMARK    6  A    between atoms: C_12  and  O_14 
REMARK    7  A    between atoms: C_16  and  S_18 
REMARK    8  A    between atoms: CA_19  and  C_20 
REMARK    9  A    between atoms: C_20  and  OXT_22 
REMARK   10  A    between atoms: N_24  and  C_25 
REMARK   11  A    between atoms: C_27  and  C_31 
REMARK   12  A    between atoms: C_31  and  O_33 
ROOT
HETATM    1  N   UNL     1      -1.552  -0.672  -1.849  1.00  0.00     0.098 N 
HETATM    2  C   UNL     1      -2.097  -1.220  -0.581  1.00  0.00     0.313 C 
HETATM    3  C   UNL     1      -1.077  -0.738   0.481  1.00  0.00     0.062 C 
HETATM    4  C   UNL     1      -0.084  -0.826  -1.757  1.00  0.00     0.285 C 
HETATM    5  C   UNL     1       0.275  -0.854  -0.260  1.00  0.00     0.078 C 
HETATM    6  H   UNL     1      -1.807   0.298  -1.963  1.00  0.00     0.317 HD
ENDROOT
BRANCH   5   7
HETATM    7  S   UNL     1       1.344   0.550   0.157  1.00  0.00    -0.151 SA
BRANCH   7   8
HETATM    8  C   UNL     1       2.872   0.184  -0.751  1.00  0.00     0.112 C 
HETATM    9  C   UNL     1       3.878   1.353  -0.616  1.00  0.00     0.027 C 
HETATM   10  C   UNL     1       4.736   0.860   0.573  1.00  0.00     0.127 C 
HETATM   11  C   UNL     1       4.724   1.503  -1.882  1.00  0.00     0.014 C 
HETATM   12  N   UNL     1       4.584  -0.600   0.574  1.00  0.00    -0.280 NA
HETATM   13  CA  UNL     1       3.594  -0.988  -0.125  1.00  0.00     0.116 C 
BRANCH  10  14
HETATM   14  C   UNL     1       6.203   1.241   0.364  1.00  0.00     0.100 C 
BRANCH  14  15
HETATM   15  C   UNL     1       6.739   0.530  -0.852  1.00  0.00     0.240 C 
HETATM   16  O   UNL     1       7.282   1.158  -1.728  1.00  0.00    -0.306 OA
ENDBRANCH  14  15
BRANCH  14  17
HETATM   17  C   UNL     1       7.017   0.832   1.594  1.00  0.00     0.126 C 
HETATM   18  C   UNL     1       8.484   1.214   1.384  1.00  0.00     0.040 C 
BRANCH  17  19
HETATM   19  O   UNL     1       6.509   1.507   2.747  1.00  0.00    -0.395 OA
HETATM   20  H   UNL     1       6.548   2.471   2.687  1.00  0.00     0.210 HD
ENDBRANCH  17  19
ENDBRANCH  14  17
ENDBRANCH  10  14
BRANCH  13  21
HETATM   21  C   UNL     1       3.199  -2.406  -0.303  1.00  0.00     0.192 C 
HETATM   22  O   UNL     1       2.238  -2.687  -0.989  1.00  0.00    -0.645 OA
BRANCH  21  23
HETATM   23  OXT UNL     1       3.907  -3.382   0.296  1.00  0.00    -0.772 OA
HETATM   24  HXT UNL     1       3.612  -4.292   0.151  1.00  0.00     0.167 HD
ENDBRANCH  21  23
ENDBRANCH  13  21
ENDBRANCH   7   8
ENDBRANCH   5   7
BRANCH   2  25
HETATM   25  C   UNL     1      -3.465  -0.653  -0.300  1.00  0.00     0.255 C 
HETATM   26  O   UNL     1      -3.824   0.365  -0.853  1.00  0.00    -0.271 OA
HETATM   27  N   UNL     1      -4.286  -1.273   0.570  1.00  0.00    -0.325 N 
HETATM   28  H   UNL     1      -4.027  -2.123   0.960  1.00  0.00     0.169 HD
BRANCH  27  29
HETATM   29  C   UNL     1      -5.513  -0.692   0.911  1.00  0.00     0.035 A 
HETATM   30  C   UNL     1      -6.232   0.014  -0.040  1.00  0.00     0.047 A 
HETATM   31  C   UNL     1      -7.455   0.592   0.305  1.00  0.00     0.039 A 
HETATM   32  C   UNL     1      -7.945   0.453   1.605  1.00  0.00     0.018 A 
HETATM   33  C   UNL     1      -7.221  -0.252   2.544  1.00  0.00     0.003 A 
HETATM   34  C   UNL     1      -6.012  -0.829   2.201  1.00  0.00     0.029 A 
BRANCH  31  35
HETATM   35  C   UNL     1      -8.228   1.347  -0.702  1.00  0.00     0.176 C 
HETATM   36  O   UNL     1      -7.800   1.467  -1.833  1.00  0.00    -0.646 OA
BRANCH  35  37
HETATM   37  O   UNL     1      -9.408   1.903  -0.367  1.00  0.00    -0.773 OA
HETATM   38  H   UNL     1      -9.878   2.388  -1.060  1.00  0.00     0.167 HD
ENDBRANCH  35  37
ENDBRANCH  31  35
ENDBRANCH  27  29
ENDBRANCH   2  25
TORSDOF 12
