REMARK  10 active torsions:
REMARK  status: ('A' for Active; 'I' for Inactive)
REMARK    1  A    between atoms: O_1  and  C_2 
REMARK    2  A    between atoms: C_2  and  C_3 
REMARK    3  A    between atoms: C_3  and  C_4 
REMARK    4  A    between atoms: C_4  and  O_5 
REMARK    5  A    between atoms: C_6  and  N_7 
REMARK    6  A    between atoms: N_7  and  CA_8 
REMARK    7  A    between atoms: CA_8  and  C_9 
REMARK    8  A    between atoms: CA_8  and  C_12 
REMARK    9  A    between atoms: C_9  and  OXT_11 
REMARK   10  A    between atoms: C_12  and  S_15 
ROOT
HETATM    1  CA  UNL     1       8.139  38.545   4.250  1.00  0.00     0.340 C 
ENDROOT
BRANCH   1   2
HETATM    2  N   UNL     1       7.618  37.178   4.147  1.00  0.00     0.100 NA
HETATM    3  H   UNL     1       6.668  37.218   4.456  1.00  0.00     0.317 HD
BRANCH   2   4
HETATM    4  C   UNL     1       8.147  36.202   4.760  1.00  0.00     0.279 C 
HETATM    5  C   UNL     1       7.666  34.938   4.674  1.00  0.00     0.061 C 
BRANCH   5   6
HETATM    6  C   UNL     1       8.306  33.840   5.415  1.00  0.00     0.172 C 
BRANCH   6   7
HETATM    7  O   UNL     1       9.187  34.186   6.202  1.00  0.00    -0.400 OA
HETATM    8  H   UNL     1       9.544  33.420   6.635  1.00  0.00     0.209 HD
ENDBRANCH   6   7
ENDBRANCH   5   6
BRANCH   5   9
HETATM    9  C   UNL     1       6.433  34.617   3.871  1.00  0.00     0.172 C 
BRANCH   9  10
HETATM   10  O   UNL     1       5.384  34.736   4.819  1.00  0.00    -0.400 OA
HETATM   11  H   UNL     1       4.553  34.549   4.398  1.00  0.00     0.209 HD
ENDBRANCH   9  10
ENDBRANCH   5   9
ENDBRANCH   2   4
ENDBRANCH   1   2
BRANCH   1  12
HETATM   12  C   UNL     1       9.418  38.742   3.471  1.00  0.00     0.176 C 
HETATM   13  O   UNL     1       9.648  38.015   2.481  1.00  0.00    -0.648 OA
BRANCH  12  14
HETATM   14  OXT UNL     1      10.215  39.629   3.856  1.00  0.00    -0.775 OA
HETATM   15  HXT UNL     1      10.976  39.640   3.287  1.00  0.00     0.167 HD
ENDBRANCH  12  14
ENDBRANCH   1  12
BRANCH   1  16
HETATM   16  C   UNL     1       7.068  39.651   4.006  1.00  0.00     0.112 C 
HETATM   17  C   UNL     1       7.455  40.626   2.901  1.00  0.00     0.035 C 
HETATM   18  C   UNL     1       6.972  40.420   5.315  1.00  0.00     0.035 C 
BRANCH  16  19
HETATM   19  S   UNL     1       5.534  39.091   3.624  1.00  0.00     0.262 S 
HETATM   20  O   UNL     1       5.515  38.461   2.326  1.00  0.00    -0.211 OA
HETATM   21  O   UNL     1       5.065  38.157   4.610  1.00  0.00    -0.211 OA
ENDBRANCH  16  19
ENDBRANCH   1  16
TORSDOF 10
