REMARK  11 active torsions:
REMARK  status: ('A' for Active; 'I' for Inactive)
REMARK    1  A    between atoms: C_1  and  C_3 
REMARK    2  A    between atoms: C_3  and  C_5 
REMARK    3  A    between atoms: C_3  and  O_26 
REMARK    4  A    between atoms: C_3  and  N_4 
REMARK       I    between atoms: N_4  and  C_13 
REMARK    5  A    between atoms: CA_9  and  C_10 
REMARK    6  A    between atoms: C_10  and  OXT_29 
REMARK    7  A    between atoms: C_13  and  C_15 
REMARK    8  A    between atoms: C_15  and  C_16 
REMARK    9  A    between atoms: C_15  and  C_23 
REMARK   10  A    between atoms: C_19  and  O_20 
REMARK   11  A    between atoms: C_23  and  O_25 
ROOT
HETATM    1  N   UNL     1      -0.161   1.138  -1.243  1.00  0.00    -0.319 N 
HETATM    2  C   UNL     1       0.968   0.831  -0.575  1.00  0.00     0.239 C 
HETATM    3  O   UNL     1       1.064   1.091   0.606  1.00  0.00    -0.272 OA
HETATM    4  H   UNL     1      -0.238   0.931  -2.187  1.00  0.00     0.166 HD
ENDROOT
BRANCH   1   5
HETATM    5  C   UNL     1      -1.273   1.786  -0.543  1.00  0.00     0.237 C 
BRANCH   5   6
HETATM    6  C   UNL     1      -0.812   3.106   0.019  1.00  0.00     0.296 C 
HETATM    7  O   UNL     1      -0.866   3.308   1.209  1.00  0.00    -0.301 OA
ENDBRANCH   5   6
BRANCH   5   8
HETATM    8  C   UNL     1      -1.752   0.886   0.598  1.00  0.00     0.308 C 
HETATM    9  N   UNL     1      -2.045  -0.439   0.065  1.00  0.00    -0.245 NA
HETATM   10  CA  UNL     1      -3.044  -1.159   0.472  1.00  0.00     0.135 C 
HETATM   11  C   UNL     1      -3.948  -0.623   1.516  1.00  0.00    -0.009 C 
HETATM   12  C   UNL     1      -3.505   0.651   2.212  1.00  0.00     0.211 C 
HETATM   13  C   UNL     1      -5.090  -1.228   1.828  1.00  0.00     0.023 C 
HETATM   14  O   UNL     1      -2.897   1.477   1.207  1.00  0.00    -0.355 OA
BRANCH  10  15
HETATM   15  C   UNL     1      -3.279  -2.510  -0.104  1.00  0.00     0.196 C 
HETATM   16  O   UNL     1      -4.146  -3.224   0.357  1.00  0.00    -0.645 OA
BRANCH  15  17
HETATM   17  OXT UNL     1      -2.532  -2.941  -1.137  1.00  0.00    -0.772 OA
HETATM   18  HXT UNL     1      -2.722  -3.826  -1.477  1.00  0.00     0.167 HD
ENDBRANCH  15  17
ENDBRANCH  10  15
ENDBRANCH   5   8
BRANCH   5  19
HETATM   19  O   UNL     1      -2.348   2.007  -1.458  1.00  0.00    -0.356 OA
HETATM   20  C   UNL     1      -2.001   2.831  -2.574  1.00  0.00     0.205 C 
ENDBRANCH   5  19
ENDBRANCH   1   5
BRANCH   2  21
HETATM   21  C   UNL     1       2.112   0.165  -1.295  1.00  0.00     0.208 C 
BRANCH  21  22
HETATM   22  C   UNL     1       3.246  -0.068  -0.329  1.00  0.00    -0.035 A 
HETATM   23  C   UNL     1       4.481   0.507  -0.563  1.00  0.00     0.011 A 
HETATM   24  C   UNL     1       5.522   0.295   0.320  1.00  0.00     0.037 A 
HETATM   25  C   UNL     1       5.326  -0.497   1.442  1.00  0.00     0.065 A 
HETATM   26  C   UNL     1       4.086  -1.073   1.675  1.00  0.00     0.037 A 
HETATM   27  C   UNL     1       3.047  -0.853   0.791  1.00  0.00     0.011 A 
BRANCH  25  28
HETATM   28  O   UNL     1       6.348  -0.707   2.313  1.00  0.00    -0.361 OA
HETATM   29  H   UNL     1       6.399  -0.055   3.025  1.00  0.00     0.217 HD
ENDBRANCH  25  28
ENDBRANCH  21  22
BRANCH  21  30
HETATM   30  C   UNL     1       1.651  -1.155  -1.857  1.00  0.00     0.157 C 
HETATM   31  O   UNL     1       0.511  -1.518  -1.690  1.00  0.00    -0.649 OA
BRANCH  30  32
HETATM   32  O   UNL     1       2.507  -1.928  -2.543  1.00  0.00    -0.775 OA
HETATM   33  H   UNL     1       2.166  -2.766  -2.884  1.00  0.00     0.167 HD
ENDBRANCH  30  32
ENDBRANCH  21  30
ENDBRANCH   2  21
TORSDOF 11
