REMARK  9 active torsions:
REMARK  status: ('A' for Active; 'I' for Inactive)
REMARK    1  A    between atoms: C_1  and  C_2 
REMARK    2  A    between atoms: C_1  and  C_3 
REMARK    3  A    between atoms: C_2  and  C_4 
REMARK    4  A    between atoms: C_3  and  N_7 
REMARK    5  A    between atoms: C_4  and  N_13 
REMARK    6  A    between atoms: C_5  and  C_6 
REMARK    7  A    between atoms: C_11  and  N_14 
REMARK       I    between atoms: C_12  and  N_13 
REMARK       I    between atoms: C_12  and  N_15 
REMARK    8  A    between atoms: N_14  and  S_21 
REMARK    9  A    between atoms: O_19  and  S_21 
ROOT
HETATM    1  C   UNL     1       1.438   0.740   0.467  1.00  0.00     0.173 C 
HETATM    2  C   UNL     1       1.806  -1.505  -0.361  1.00  0.00     0.048 C 
HETATM    3  C   UNL     1       0.358  -1.377   0.190  1.00  0.00     0.131 C 
HETATM    4  C   UNL     1       2.526  -0.352   0.387  1.00  0.00     0.125 C 
HETATM    5  C   UNL     1      -1.065   0.687   0.326  1.00  0.00     0.319 C 
HETATM    6  N   UNL     1      -2.193  -0.038   0.188  1.00  0.00    -0.343 N 
HETATM    7  N   UNL     1       0.135   0.073   0.328  1.00  0.00    -0.321 N 
HETATM    8  O   UNL     1      -1.130   1.895   0.448  1.00  0.00    -0.247 OA
HETATM    9  H   UNL     1      -2.141  -1.002   0.090  1.00  0.00     0.164 HD
ENDROOT
BRANCH   1  10
HETATM   10  C   UNL     1       1.627   1.734  -0.650  1.00  0.00     0.258 C 
HETATM   11  O   UNL     1       1.908   2.881  -0.396  1.00  0.00    -0.305 OA
ENDBRANCH   1  10
BRANCH   4  12
HETATM   12  N   UNL     1       3.680   0.122  -0.380  1.00  0.00    -0.300 N 
HETATM   13  H   UNL     1       3.557   0.771  -1.090  1.00  0.00     0.174 HD
BRANCH  12  14
HETATM   14  S   UNL     1       5.195  -0.450  -0.034  1.00  0.00     0.195 S 
HETATM   15  O   UNL     1       5.352  -0.347   1.374  1.00  0.00    -0.585 OA
HETATM   16  O   UNL     1       6.078   0.166  -0.962  1.00  0.00    -0.585 OA
BRANCH  14  17
HETATM   17  O   UNL     1       5.200  -1.937  -0.360  1.00  0.00    -0.279 OA
HETATM   18  H   UNL     1       6.047  -2.374  -0.192  1.00  0.00     0.234 HD
ENDBRANCH  14  17
ENDBRANCH  12  14
ENDBRANCH   4  12
BRANCH   6  19
HETATM   19  C   UNL     1      -3.497   0.629   0.185  1.00  0.00     0.124 C 
BRANCH  19  20
HETATM   20  C   UNL     1      -4.603  -0.414   0.015  1.00  0.00     0.021 C 
BRANCH  20  21
HETATM   21  C   UNL     1      -5.965   0.283   0.012  1.00  0.00     0.031 C 
BRANCH  21  22
HETATM   22  C   UNL     1      -7.071  -0.761  -0.158  1.00  0.00     0.269 C 
BRANCH  22  23
HETATM   23  N   UNL     1      -8.379  -0.092  -0.161  1.00  0.00     0.079 N 
HETATM   24  C   UNL     1      -9.468  -1.065  -0.323  1.00  0.00     0.306 C 
HETATM   25  H   UNL     1      -8.506   0.457   0.675  1.00  0.00     0.315 HD
ENDBRANCH  22  23
ENDBRANCH  21  22
ENDBRANCH  20  21
ENDBRANCH  19  20
ENDBRANCH   6  19
TORSDOF 9
