REMARK  6 active torsions:
REMARK  status: ('A' for Active; 'I' for Inactive)
REMARK    1  A    between atoms: C_2  and  O_21 
REMARK    2  A    between atoms: O_4  and  B_17 
REMARK    3  A    between atoms: C_5  and  C_6 
REMARK    4  A    between atoms: C_5  and  C_15 
REMARK    5  A    between atoms: C_6  and  O_13 
REMARK    6  A    between atoms: C_9  and  O_21 
ROOT
HETATM    1  C   UNL     1       0.658   1.354  -0.723  1.00  0.00     0.039 A 
HETATM    2  C   UNL     1       1.454   0.260  -1.023  1.00  0.00     0.084 A 
HETATM    3  C   UNL     1       0.881  -0.998  -1.158  1.00  0.00    -0.021 A 
HETATM    4  C   UNL     1      -1.094  -2.535  -1.135  1.00  0.00     0.049 C 
HETATM    5  C   UNL     1       1.748  -2.186  -1.485  1.00  0.00     0.052 C 
HETATM    6  C   UNL     1      -2.760   0.047  -0.433  1.00  0.00     0.146 A 
HETATM    7  O   UNL     1      -3.076   1.413  -0.169  1.00  0.00    -0.414 OA
HETATM    8  B   UNL     1      -1.879   2.177  -0.214  1.00  0.00     0.533 B 
HETATM    9  C   UNL     1      -1.281  -0.083  -0.683  1.00  0.00    -0.023 A 
HETATM   10  C   UNL     1      -0.711   1.183  -0.552  1.00  0.00    -0.020 A 
HETATM   11  C   UNL     1      -0.482  -1.165  -0.993  1.00  0.00    -0.045 A 
ENDROOT
BRANCH   2  12
HETATM   12  O   UNL     1       2.794   0.418  -1.187  1.00  0.00    -0.290 OA
BRANCH  12  13
HETATM   13  C   UNL     1       3.596   0.198  -0.115  1.00  0.00     0.187 A 
HETATM   14  C   UNL     1       4.979   0.243  -0.259  1.00  0.00     0.174 A 
HETATM   15  N   UNL     1       5.757   0.024   0.784  1.00  0.00    -0.267 NA
HETATM   16  C   UNL     1       5.224  -0.239   1.965  1.00  0.00     0.135 A 
HETATM   17  C   UNL     1       3.850  -0.279   2.112  1.00  0.00     0.138 A 
HETATM   18  N   UNL     1       3.065  -0.065   1.070  1.00  0.00    -0.234 NA
ENDBRANCH  12  13
ENDBRANCH   2  12
BRANCH   8  19
HETATM   19  O   UNL     1      -1.761   3.576   0.004  1.00  0.00    -0.433 OA
HETATM   20  H   UNL     1      -2.599   4.015   0.200  1.00  0.00     0.185 HD
ENDBRANCH   8  19
BRANCH   6  21
HETATM   21  C   UNL     1      -3.171  -0.813   0.763  1.00  0.00     0.145 C 
BRANCH  21  22
HETATM   22  C   UNL     1      -4.670  -0.781   0.913  1.00  0.00     0.142 C 
HETATM   23  O   UNL     1      -5.341  -0.137   0.142  1.00  0.00    -0.650 OA
BRANCH  22  24
HETATM   24  O   UNL     1      -5.260  -1.469   1.903  1.00  0.00    -0.776 OA
HETATM   25  H   UNL     1      -6.224  -1.418   1.959  1.00  0.00     0.167 HD
ENDBRANCH  22  24
ENDBRANCH  21  22
ENDBRANCH   6  21
TORSDOF 6
