REMARK  13 active torsions:
REMARK  status: ('A' for Active; 'I' for Inactive)
REMARK       I    between atoms: N_1  and  C_15 
REMARK    1  A    between atoms: N_1  and  C_2 
REMARK    2  A    between atoms: C_2  and  C_17 
REMARK    3  A    between atoms: C_2  and  C_3 
REMARK       I    between atoms: C_3  and  N_24 
REMARK    4  A    between atoms: N_9  and  C_10 
REMARK       I    between atoms: N_14  and  C_15 
REMARK    5  A    between atoms: C_20  and  O_21 
REMARK    6  A    between atoms: N_24  and  C_25 
REMARK    7  A    between atoms: C_25  and  C_29 
REMARK    8  A    between atoms: C_25  and  B_26 
REMARK    9  A    between atoms: B_26  and  O_28 
REMARK   10  A    between atoms: B_26  and  O_27 
REMARK   11  A    between atoms: C_29  and  C_30 
REMARK   12  A    between atoms: C_32  and  C_33 
REMARK   13  A    between atoms: C_33  and  O_35 
ROOT
HETATM    1  C   UNL     1      -0.994  -0.481  -0.753  1.00  0.00     0.211 C 
ENDROOT
BRANCH   1   2
HETATM    2  N   UNL     1      -2.161   0.243  -0.244  1.00  0.00    -0.325 N 
HETATM    3  C   UNL     1      -3.330   0.193  -0.912  1.00  0.00     0.330 C 
HETATM    4  N   UNL     1      -4.430   0.771  -0.390  1.00  0.00    -0.235 N 
HETATM    5  O   UNL     1      -3.392  -0.374  -1.985  1.00  0.00    -0.246 OA
HETATM    6  C   UNL     1      -5.622   0.642  -1.012  1.00  0.00     0.324 A 
HETATM    7  C   UNL     1      -4.339   1.508   0.778  1.00  0.00     0.122 A 
HETATM    8  O   UNL     1      -5.721   0.002  -2.040  1.00  0.00    -0.261 OA
HETATM    9  C   UNL     1      -6.815   1.297  -0.403  1.00  0.00     0.316 A 
HETATM   10  N   UNL     1      -6.652   1.996   0.741  1.00  0.00    -0.319 N 
HETATM   11  O   UNL     1      -7.909   1.203  -0.924  1.00  0.00    -0.262 OA
HETATM   12  C   UNL     1      -5.403   2.091   1.318  1.00  0.00     0.112 A 
HETATM   13  H   UNL     1      -2.093   0.757   0.576  1.00  0.00     0.165 HD
BRANCH  10  14
HETATM   14  C   UNL     1      -7.802   2.653   1.368  1.00  0.00     0.127 C 
HETATM   15  C   UNL     1      -8.465   1.689   2.353  1.00  0.00     0.027 C 
ENDBRANCH  10  14
ENDBRANCH   1   2
BRANCH   1  16
HETATM   16  C   UNL     1      -1.044  -1.911  -0.278  1.00  0.00    -0.026 A 
HETATM   17  C   UNL     1      -1.451  -2.195   1.012  1.00  0.00     0.012 A 
HETATM   18  C   UNL     1      -1.503  -3.505   1.448  1.00  0.00     0.037 A 
HETATM   19  C   UNL     1      -1.137  -4.535   0.593  1.00  0.00     0.065 A 
HETATM   20  C   UNL     1      -0.723  -4.246  -0.699  1.00  0.00     0.037 A 
HETATM   21  C   UNL     1      -0.678  -2.935  -1.132  1.00  0.00     0.012 A 
BRANCH  19  22
HETATM   22  O   UNL     1      -1.187  -5.824   1.020  1.00  0.00    -0.361 OA
HETATM   23  H   UNL     1      -2.036  -6.259   0.859  1.00  0.00     0.217 HD
ENDBRANCH  19  22
ENDBRANCH   1  16
BRANCH   1  24
HETATM   24  C   UNL     1       0.265   0.173  -0.245  1.00  0.00     0.244 C 
HETATM   25  N   UNL     1       1.469  -0.327  -0.587  1.00  0.00    -0.358 N 
HETATM   26  H   UNL     1       1.526  -1.107  -1.161  1.00  0.00     0.162 HD
HETATM   27  O   UNL     1       0.195   1.148   0.472  1.00  0.00    -0.271 OA
BRANCH  25  28
HETATM   28  C   UNL     1       2.693   0.309  -0.093  1.00  0.00     0.114 C 
BRANCH  28  29
HETATM   29  C   UNL     1       3.662  -0.766   0.402  1.00  0.00     0.059 C 
BRANCH  29  30
HETATM   30  C   UNL     1       4.921  -0.112   0.910  1.00  0.00    -0.056 A 
HETATM   31  C   UNL     1       5.973   0.120   0.048  1.00  0.00     0.025 A 
HETATM   32  C   UNL     1       7.138   0.726   0.520  1.00  0.00     0.038 A 
HETATM   33  C   UNL     1       7.231   1.095   1.864  1.00  0.00     0.018 A 
HETATM   34  C   UNL     1       6.172   0.857   2.715  1.00  0.00     0.002 A 
HETATM   35  C   UNL     1       5.018   0.260   2.239  1.00  0.00     0.007 A 
BRANCH  32  36
HETATM   36  C   UNL     1       8.268   0.978  -0.398  1.00  0.00     0.176 C 
HETATM   37  O   UNL     1       8.184   0.657  -1.566  1.00  0.00    -0.646 OA
BRANCH  36  38
HETATM   38  O   UNL     1       9.391   1.563   0.061  1.00  0.00    -0.773 OA
HETATM   39  H   UNL     1      10.104   1.707  -0.577  1.00  0.00     0.167 HD
ENDBRANCH  36  38
ENDBRANCH  32  36
ENDBRANCH  29  30
ENDBRANCH  28  29
BRANCH  28  40
HETATM   40  B   UNL     1       3.365   1.124  -1.255  1.00  0.00     0.515 B 
BRANCH  40  41
HETATM   41  O   UNL     1       3.777   0.461  -2.441  1.00  0.00    -0.436 OA
HETATM   42  H   UNL     1       4.180   1.045  -3.098  1.00  0.00     0.184 HD
ENDBRANCH  40  41
BRANCH  40  43
HETATM   43  O   UNL     1       3.560   2.524  -1.120  1.00  0.00    -0.436 OA
HETATM   44  H   UNL     1       3.981   2.938  -1.886  1.00  0.00     0.184 HD
ENDBRANCH  40  43
ENDBRANCH  28  40
ENDBRANCH  25  28
ENDBRANCH   1  24
TORSDOF 13
