REMARK  14 active torsions:
REMARK  status: ('A' for Active; 'I' for Inactive)
REMARK    1  A    between atoms: C_1  and  C_14 
REMARK    2  A    between atoms: C_1  and  O_12 
REMARK    3  A    between atoms: C_2  and  C_18 
REMARK    4  A    between atoms: C_2  and  O_20 
REMARK       I    between atoms: C_4  and  N_26 
REMARK    5  A    between atoms: C_4  and  C_10 
REMARK    6  A    between atoms: C_10  and  C_29 
REMARK    7  A    between atoms: C_10  and  N_28 
REMARK    8  A    between atoms: C_17  and  C_18 
REMARK    9  A    between atoms: C_18  and  N_26 
REMARK   10  A    between atoms: O_20  and  C_21 
REMARK   11  A    between atoms: C_21  and  C_22 
REMARK   12  A    between atoms: C_22  and  C_23 
REMARK   13  A    between atoms: C_22  and  N_25 
REMARK   14  A    between atoms: C_23  and  O_37 
ROOT
HETATM    1  C   UNK     1      -0.374  -0.870  -0.828  1.00  0.00     0.217 C 
ENDROOT
BRANCH   1   2
HETATM    2  C   UNK     1       0.736  -1.553  -0.071  1.00  0.00     0.284 C 
HETATM    3  O   UNK     1       0.476  -2.411   0.738  1.00  0.00    -0.263 OA
BRANCH   2   4
HETATM    4  O   UNK     1       2.013  -1.206  -0.295  1.00  0.00    -0.317 OA
BRANCH   4   5
HETATM    5  C   UNK     1       3.030  -1.905   0.470  1.00  0.00     0.225 C 
BRANCH   5   6
HETATM    6  C   UNK     1       4.413  -1.378   0.080  1.00  0.00     0.338 C 
BRANCH   6   7
HETATM    7  C   UNK     1       5.458  -2.014   0.960  1.00  0.00     0.176 C 
HETATM    8  O   UNK     1       6.109  -2.945   0.548  1.00  0.00    -0.648 OA
BRANCH   7   9
HETATM    9  O   UNK     1       5.667  -1.547   2.201  1.00  0.00    -0.775 OA
HETATM   10  H   UNK     1       6.348  -1.987   2.727  1.00  0.00     0.167 HD
ENDBRANCH   7   9
ENDBRANCH   6   7
BRANCH   6  11
HETATM   11  N   UNK     1       4.686  -1.711  -1.324  1.00  0.00     0.095 N 
HETATM   12  H   UNK     1       5.566  -1.319  -1.624  1.00  0.00     0.314 HD
HETATM   13  H   UNK     1       4.667  -2.710  -1.469  1.00  0.00     0.314 HD
ENDBRANCH   6  11
ENDBRANCH   5   6
ENDBRANCH   4   5
ENDBRANCH   2   4
ENDBRANCH   1   2
BRANCH   1  14
HETATM   14  C   UNK     1      -0.342   0.632  -0.537  1.00  0.00     0.176 C 
HETATM   15  S   UNK     1      -0.565   0.923   1.248  1.00  0.00    -0.137 SA
HETATM   16  C   UNK     1      -0.357   2.727   1.342  1.00  0.00     0.112 C 
HETATM   17  C   UNK     1       0.834   3.134   0.523  1.00  0.00    -0.041 C 
HETATM   18  C   UNK     1       1.469   4.462   0.845  1.00  0.00     0.047 C 
HETATM   19  C   UNK     1       1.370   2.434  -0.449  1.00  0.00     0.106 C 
HETATM   20  N   UNK     1       0.969   1.186  -0.907  1.00  0.00    -0.368 N 
HETATM   21  H   UNK     1       1.561   0.672  -1.478  1.00  0.00     0.161 HD
BRANCH  19  22
HETATM   22  C   UNK     1       2.528   3.040  -1.133  1.00  0.00     0.193 C 
HETATM   23  O   UNK     1       2.869   4.174  -0.859  1.00  0.00    -0.645 OA
BRANCH  22  24
HETATM   24  O   UNK     1       3.204   2.340  -2.065  1.00  0.00    -0.772 OA
HETATM   25  H   UNK     1       3.953   2.781  -2.488  1.00  0.00     0.167 HD
ENDBRANCH  22  24
ENDBRANCH  19  22
ENDBRANCH   1  14
BRANCH   1  26
HETATM   26  N   UNK     1      -1.664  -1.422  -0.406  1.00  0.00    -0.342 N 
HETATM   27  C   UNK     1      -2.724  -1.370  -1.237  1.00  0.00     0.256 C 
HETATM   28  O   UNK     1      -2.610  -0.865  -2.334  1.00  0.00    -0.271 OA
HETATM   29  H   UNK     1      -1.755  -1.825   0.472  1.00  0.00     0.163 HD
BRANCH  27  30
HETATM   30  C   UNK     1      -4.051  -1.937  -0.803  1.00  0.00     0.342 C 
BRANCH  30  31
HETATM   31  C   UNK     1      -4.752  -0.948   0.093  1.00  0.00    -0.016 A 
HETATM   32  C   UNK     1      -4.716  -1.112   1.465  1.00  0.00     0.010 A 
HETATM   33  C   UNK     1      -5.359  -0.205   2.286  1.00  0.00     0.001 A 
HETATM   34  C   UNK     1      -6.023   0.876   1.736  1.00  0.00     0.000 A 
HETATM   35  C   UNK     1      -6.053   1.043   0.364  1.00  0.00     0.001 A 
HETATM   36  C   UNK     1      -5.420   0.130  -0.458  1.00  0.00     0.010 A 
ENDBRANCH  30  31
BRANCH  30  37
HETATM   37  N   UNK     1      -4.881  -2.201  -1.985  1.00  0.00     0.096 N 
HETATM   38  H   UNK     1      -5.047  -1.353  -2.507  1.00  0.00     0.314 HD
HETATM   39  H   UNK     1      -4.463  -2.909  -2.570  1.00  0.00     0.314 HD
ENDBRANCH  30  37
ENDBRANCH  27  30
ENDBRANCH   1  26
TORSDOF 14
