REMARK  7 active torsions:
REMARK  status: ('A' for Active; 'I' for Inactive)
REMARK    1  A    between atoms: S_2  and  O_5 
REMARK    2  A    between atoms: S_2  and  O_4 
REMARK    3  A    between atoms: O_5  and  N_6 
REMARK    4  A    between atoms: N_6  and  C_7 
REMARK    5  A    between atoms: N_11  and  C_12 
REMARK    6  A    between atoms: C_14  and  C_15 
REMARK       I    between atoms: C_15  and  N_17 
REMARK    7  A    between atoms: N_17  and  N_18 
REMARK       I    between atoms: N_18  and  C_19 
ROOT
HETATM    1  C   UNL     1      -1.385  -0.434  -0.288  1.00  0.00     0.103 C 
HETATM    2  C   UNL     1      -0.529  -1.701  -0.347  1.00  0.00     0.026 C 
HETATM    3  C   UNL     1       0.883  -1.343  -0.817  1.00  0.00     0.037 C 
HETATM    4  C   UNL     1      -0.774   0.544   0.721  1.00  0.00     0.148 C 
HETATM    5  N   UNL     1       0.630   0.780   0.359  1.00  0.00    -0.344 N 
HETATM    6  C   UNL     1       1.520  -0.376   0.186  1.00  0.00     0.180 C 
ENDROOT
BRANCH   6   7
HETATM    7  C   UNL     1       2.855   0.088  -0.337  1.00  0.00     0.259 C 
HETATM    8  N   UNL     1       3.994  -0.394   0.199  1.00  0.00    -0.266 N 
HETATM    9  H   UNL     1       3.954  -1.040   0.922  1.00  0.00     0.190 HD
HETATM   10  O   UNL     1       2.905   0.895  -1.241  1.00  0.00    -0.269 OA
BRANCH   8  11
HETATM   11  N   UNL     1       5.235   0.036  -0.287  1.00  0.00    -0.268 N 
HETATM   12  C   UNL     1       6.373  -0.446   0.249  1.00  0.00     0.232 C 
HETATM   13  C   UNL     1       7.708   0.018  -0.275  1.00  0.00     0.119 C 
HETATM   14  O   UNL     1       6.323  -1.253   1.153  1.00  0.00    -0.272 OA
HETATM   15  H   UNL     1       5.274   0.682  -1.011  1.00  0.00     0.190 HD
ENDBRANCH   8  11
ENDBRANCH   6   7
BRANCH   5  16
HETATM   16  C   UNL     1       1.093   2.035   0.188  1.00  0.00     0.351 C 
HETATM   17  O   UNL     1       0.329   2.975   0.237  1.00  0.00    -0.284 OA
ENDBRANCH   5  16
BRANCH   1  18
HETATM   18  N   UNL     1      -2.749  -0.783   0.132  1.00  0.00    -0.180 NA
HETATM   19  H   UNL     1      -2.821  -0.811   1.138  1.00  0.00     0.155 HD
BRANCH  18  20
HETATM   20  O   UNL     1      -3.727   0.143  -0.439  1.00  0.00    -0.167 OA
BRANCH  20  21
HETATM   21  S   UNL     1      -5.166  -0.156  -0.046  1.00  0.00     0.257 S 
HETATM   22  O   UNL     1      -5.295  -1.572  -0.044  1.00  0.00    -0.578 OA
HETATM   23  O   UNL     1      -5.984   0.697  -0.835  1.00  0.00    -0.578 OA
BRANCH  21  24
HETATM   24  O   UNL     1      -5.343   0.294   1.397  1.00  0.00    -0.273 OA
HETATM   25  H   UNL     1      -6.231   0.147   1.749  1.00  0.00     0.234 HD
ENDBRANCH  21  24
ENDBRANCH  20  21
ENDBRANCH  18  20
ENDBRANCH   1  18
TORSDOF 7
