REMARK  10 active torsions:
REMARK  status: ('A' for Active; 'I' for Inactive)
REMARK    1  A    between atoms: C_1  and  O_2 
REMARK    2  A    between atoms: O_2  and  C_3 
REMARK    3  A    between atoms: C_3  and  C_4 
REMARK    4  A    between atoms: CA_6  and  C_7 
REMARK    5  A    between atoms: C_7  and  OXT_9 
REMARK    6  A    between atoms: C_11  and  CA_12 
REMARK    7  A    between atoms: CA_12  and  N_13 
REMARK    8  A    between atoms: CA_12  and  C_15 
REMARK       I    between atoms: N_13  and  C_14 
REMARK    9  A    between atoms: C_14  and  C_20 
REMARK   10  A    between atoms: C_20  and  C_22 
ROOT
HETATM    1  C   UNL     1       3.312  -0.053  -0.306  1.00  0.00    -0.013 C 
HETATM    2  S   UNL     1       0.913  -0.669  -1.421  1.00  0.00    -0.137 SA
HETATM    3  CA  UNL     1       2.733   0.960   0.296  1.00  0.00     0.108 C 
HETATM    4  N   UNL     1       1.370   1.202   0.410  1.00  0.00    -0.368 N 
HETATM    5  C   UNL     1       0.388   0.147   0.121  1.00  0.00     0.173 C 
HETATM    6  C   UNL     1       2.603  -1.183  -0.996  1.00  0.00     0.115 C 
HETATM    7  H   UNL     1       1.062   2.080   0.685  1.00  0.00     0.161 HD
ENDROOT
BRANCH   5   8
HETATM    8  CA  UNL     1      -1.002   0.761  -0.061  1.00  0.00     0.178 C 
BRANCH   8   9
HETATM    9  N   UNL     1      -1.961  -0.294  -0.400  1.00  0.00    -0.347 N 
HETATM   10  C   UNL     1      -3.269  -0.130  -0.123  1.00  0.00     0.223 C 
HETATM   11  O   UNL     1      -3.654   0.892   0.406  1.00  0.00    -0.273 OA
HETATM   12  H   UNL     1      -1.653  -1.111  -0.823  1.00  0.00     0.163 HD
BRANCH  10  13
HETATM   13  C   UNL     1      -4.255  -1.215  -0.472  1.00  0.00     0.148 C 
BRANCH  13  14
HETATM   14  C   UNL     1      -5.641  -0.785  -0.062  1.00  0.00    -0.009 A 
HETATM   15  C   UNL     1      -6.497  -0.115  -0.833  1.00  0.00     0.015 A 
HETATM   16  C   UNL     1      -7.715   0.171  -0.240  1.00  0.00     0.008 A 
HETATM   17  C   UNL     1      -7.848  -0.270   1.012  1.00  0.00     0.050 A 
HETATM   18  S   UNL     1      -6.377  -1.099   1.504  1.00  0.00    -0.106 SA
ENDBRANCH  13  14
ENDBRANCH  10  13
ENDBRANCH   8   9
BRANCH   8  19
HETATM   19  C   UNL     1      -0.961   1.778  -1.172  1.00  0.00     0.259 C 
HETATM   20  O   UNL     1      -1.660   1.636  -2.147  1.00  0.00    -0.305 OA
ENDBRANCH   8  19
ENDBRANCH   5   8
BRANCH   3  21
HETATM   21  C   UNL     1       3.629   1.950   0.920  1.00  0.00     0.193 C 
HETATM   22  O   UNL     1       3.975   2.934   0.297  1.00  0.00    -0.645 OA
BRANCH  21  23
HETATM   23  OXT UNL     1       4.066   1.764   2.182  1.00  0.00    -0.772 OA
HETATM   24  HXT UNL     1       4.652   2.440   2.548  1.00  0.00     0.167 HD
ENDBRANCH  21  23
ENDBRANCH   3  21
BRANCH   1  25
HETATM   25  C   UNL     1       4.818  -0.082  -0.309  1.00  0.00     0.216 C 
BRANCH  25  26
HETATM   26  O   UNL     1       5.280  -1.344   0.241  1.00  0.00    -0.317 OA
BRANCH  26  27
HETATM   27  C   UNL     1       6.603  -1.569   0.223  1.00  0.00     0.255 C 
HETATM   28  C   UNL     1       7.156  -2.857   0.776  1.00  0.00     0.126 C 
HETATM   29  O   UNL     1       7.350  -0.742  -0.243  1.00  0.00    -0.266 OA
ENDBRANCH  26  27
ENDBRANCH  25  26
ENDBRANCH   1  25
TORSDOF 10
