REMARK  9 active torsions:
REMARK  status: ('A' for Active; 'I' for Inactive)
REMARK    1  A    between atoms: C_1  and  N_9 
REMARK    2  A    between atoms: C_1  and  B_7 
REMARK    3  A    between atoms: O_2  and  P_3 
REMARK    4  A    between atoms: P_3  and  O_4 
REMARK    5  A    between atoms: P_3  and  O_6 
REMARK    6  A    between atoms: O_6  and  B_7 
REMARK    7  A    between atoms: B_7  and  O_8 
REMARK    8  A    between atoms: C_12  and  C_14 
REMARK    9  A    between atoms: C_14  and  O_16 
ROOT
HETATM    1  C   UNL     1      -0.022  -1.246  -1.169  1.00  0.00     0.173 C 
ENDROOT
BRANCH   1   2
HETATM    2  N   UNL     1       1.278  -0.986  -0.546  1.00  0.00    -0.263 N 
HETATM    3  C   UNL     1       2.129   0.015  -0.848  1.00  0.00     0.153 A 
HETATM    4  C   UNL     1       3.210  -0.122  -0.024  1.00  0.00     0.170 A 
HETATM    5  N   UNL     1       3.016  -1.198   0.758  1.00  0.00    -0.124 NA
HETATM    6  N   UNL     1       1.880  -1.735   0.476  1.00  0.00    -0.066 NA
BRANCH   4   7
HETATM    7  C   UNL     1       4.393   0.758   0.000  1.00  0.00     0.199 C 
HETATM    8  O   UNL     1       4.459   1.706  -0.756  1.00  0.00    -0.645 OA
BRANCH   7   9
HETATM    9  O   UNL     1       5.400   0.510   0.861  1.00  0.00    -0.772 OA
HETATM   10  H   UNL     1       6.154   1.115   0.839  1.00  0.00     0.167 HD
ENDBRANCH   7   9
ENDBRANCH   4   7
ENDBRANCH   1   2
BRANCH   1  11
HETATM   11  B   UNL     1      -1.143  -0.483  -0.379  1.00  0.00     0.522 B 
BRANCH  11  12
HETATM   12  O   UNL     1      -2.497  -0.581  -0.795  1.00  0.00    -0.334 OA
BRANCH  12  13
HETATM   13  P   UNL     1      -3.525   0.258   0.117  1.00  0.00     0.375 P 
HETATM   14  O   UNL     1      -3.461  -0.234   1.512  1.00  0.00    -0.632 OA
BRANCH  13  15
HETATM   15  O   UNL     1      -5.020   0.072  -0.449  1.00  0.00    -0.308 OA
HETATM   16  H   UNL     1      -5.694   0.550   0.053  1.00  0.00     0.222 HD
ENDBRANCH  13  15
BRANCH  13  17
HETATM   17  O   UNL     1      -3.127   1.818   0.079  1.00  0.00    -0.308 OA
HETATM   18  H   UNL     1      -3.148   2.207  -0.806  1.00  0.00     0.222 HD
ENDBRANCH  13  17
ENDBRANCH  12  13
ENDBRANCH  11  12
BRANCH  11  19
HETATM   19  O   UNL     1      -0.803   0.304   0.753  1.00  0.00    -0.436 OA
HETATM   20  H   UNL     1       0.141   0.310   0.960  1.00  0.00     0.184 HD
ENDBRANCH  11  19
ENDBRANCH   1  11
TORSDOF 9
