REMARK  7 active torsions:
REMARK  status: ('A' for Active; 'I' for Inactive)
REMARK    1  A    between atoms: C_1  and  O_3 
REMARK    2  A    between atoms: C_1  and  C_4 
REMARK    3  A    between atoms: C_4  and  C_5 
REMARK    4  A    between atoms: C_4  and  C_7 
REMARK    5  A    between atoms: C_5  and  O_6 
REMARK    6  A    between atoms: CA_12  and  C_13 
REMARK    7  A    between atoms: C_13  and  OXT_15 
ROOT
HETATM    1  C   UNL     1      -0.039   0.026   0.281  1.00  0.00     0.300 C 
HETATM    2  S   UNL     1       1.628  -0.131  -0.498  1.00  0.00    -0.121 SA
HETATM    3  C   UNL     1       1.051  -0.330  -2.239  1.00  0.00     0.044 C 
HETATM    4  C   UNL     1       1.788  -1.477  -2.934  1.00  0.00     0.029 C 
HETATM    5  C   UNL     1       1.213   0.974  -3.022  1.00  0.00     0.029 C 
HETATM    6  CA  UNL     1      -0.441  -0.673  -2.039  1.00  0.00     0.336 C 
HETATM    7  N   UNL     1      -0.826  -0.848  -0.637  1.00  0.00     0.115 N 
HETATM    8  H   UNL     1      -1.789  -0.555  -0.562  1.00  0.00     0.318 HD
ENDROOT
BRANCH   1   9
HETATM    9  C   UNL     1      -0.041  -0.519   1.710  1.00  0.00     0.160 C 
BRANCH   9  10
HETATM   10  C   UNL     1      -1.446  -0.497   2.254  1.00  0.00     0.149 C 
HETATM   11  O   UNL     1      -1.700   0.147   3.244  1.00  0.00    -0.650 OA
BRANCH  10  12
HETATM   12  O   UNL     1      -2.415  -1.193   1.640  1.00  0.00    -0.776 OA
HETATM   13  H   UNL     1      -3.317  -1.178   1.989  1.00  0.00     0.167 HD
ENDBRANCH  10  12
ENDBRANCH   9  10
BRANCH   9  14
HETATM   14  C   UNL     1       0.860   0.349   2.589  1.00  0.00     0.067 C 
HETATM   15  C   UNL     1       0.858  -0.197   4.018  1.00  0.00     0.046 C 
HETATM   16  C   UNL     1       0.337   1.787   2.592  1.00  0.00     0.046 C 
BRANCH  14  17
HETATM   17  O   UNL     1       2.192   0.327   2.073  1.00  0.00    -0.390 OA
HETATM   18  H   UNL     1       2.483  -0.594   2.088  1.00  0.00     0.210 HD
ENDBRANCH  14  17
ENDBRANCH   9  14
ENDBRANCH   1   9
BRANCH   6  19
HETATM   19  C   UNL     1      -1.270   0.437  -2.631  1.00  0.00     0.175 C 
HETATM   20  O   UNL     1      -1.680   1.327  -1.924  1.00  0.00    -0.648 OA
BRANCH  19  21
HETATM   21  OXT UNL     1      -1.553   0.437  -3.943  1.00  0.00    -0.775 OA
HETATM   22  HXT UNL     1      -2.085   1.150  -4.323  1.00  0.00     0.167 HD
ENDBRANCH  19  21
ENDBRANCH   6  19
TORSDOF 7
