REMARK  4 active torsions:
REMARK  status: ('A' for Active; 'I' for Inactive)
REMARK    1  A    between atoms: B_1  and  O_2 
REMARK    2  A    between atoms: B_1  and  O_3 
REMARK    3  A    between atoms: B_1  and  C_4 
REMARK    4  A    between atoms: C_6  and  N_10 
ROOT
HETATM    1  C   UNL     1       0.162   0.000  -0.475  1.00  0.00    -0.030 A 
HETATM    2  C   UNL     1      -0.827  -0.005   0.504  1.00  0.00     0.029 A 
HETATM    3  C   UNL     1      -0.471   0.000   1.844  1.00  0.00     0.025 A 
HETATM    4  C   UNL     1       0.871   0.000   2.206  1.00  0.00     0.029 A 
HETATM    5  C   UNL     1       1.852   0.000   1.233  1.00  0.00     0.002 A 
HETATM    6  C   UNL     1       1.505   0.000  -0.103  1.00  0.00     0.001 A 
ENDROOT
BRANCH   1   7
HETATM    7  B   UNL     1      -0.233   0.000  -1.994  1.00  0.00     0.529 B 
BRANCH   7   8
HETATM    8  O   UNL     1       0.777   0.000  -2.991  1.00  0.00    -0.433 OA
HETATM    9  H   UNL     1       0.326   0.000  -3.846  1.00  0.00     0.185 HD
ENDBRANCH   7   8
BRANCH   7  10
HETATM   10  O   UNL     1      -1.602   0.001  -2.371  1.00  0.00    -0.433 OA
HETATM   11  H   UNL     1      -2.117   0.001  -1.552  1.00  0.00     0.185 HD
ENDBRANCH   7  10
ENDBRANCH   1   7
BRANCH   3  12
HETATM   12  N   UNL     1      -1.460   0.001   2.831  1.00  0.00    -0.399 N 
HETATM   13  H   UNL     1      -1.210   0.001   3.768  1.00  0.00     0.156 HD
HETATM   14  H   UNL     1      -2.397   0.005   2.578  1.00  0.00     0.156 HD
ENDBRANCH   3  12
TORSDOF 4
