REMARK  9 active torsions:
REMARK  status: ('A' for Active; 'I' for Inactive)
REMARK    1  A    between atoms: C_1  and  CA_3 
REMARK    2  A    between atoms: CA_3  and  C_4 
REMARK    3  A    between atoms: CA_3  and  N_14 
REMARK    4  A    between atoms: CA_9  and  C_10 
REMARK    5  A    between atoms: C_10  and  O_11 
REMARK       I    between atoms: N_14  and  C_15 
REMARK    6  A    between atoms: C_15  and  CA_17 
REMARK    7  A    between atoms: CA_17  and  N_18 
REMARK    8  A    between atoms: CA_17  and  C_19 
REMARK    9  A    between atoms: C_22  and  O_25 
ROOT
HETATM    1  N   UNL     1       0.670  -1.228  -0.064  1.00  0.00    -0.345 N 
HETATM    2  C   UNL     1       1.861  -1.704   0.348  1.00  0.00     0.256 C 
HETATM    3  O   UNL     1       1.954  -2.257   1.424  1.00  0.00    -0.271 OA
HETATM    4  H   UNL     1       0.595  -0.785  -0.924  1.00  0.00     0.163 HD
ENDROOT
BRANCH   1   5
HETATM    5  CA  UNL     1      -0.513  -1.378   0.788  1.00  0.00     0.189 C 
BRANCH   5   6
HETATM    6  C   UNL     1      -1.134  -2.730   0.550  1.00  0.00     0.259 C 
HETATM    7  O   UNL     1      -0.640  -3.490  -0.248  1.00  0.00    -0.305 OA
ENDBRANCH   5   6
BRANCH   5   8
HETATM    8  C   UNL     1      -1.528  -0.284   0.449  1.00  0.00     0.312 C 
HETATM    9  S   UNL     1      -2.086  -0.415  -1.301  1.00  0.00    -0.119 SA
HETATM   10  C   UNL     1      -3.727   0.354  -0.999  1.00  0.00     0.044 C 
HETATM   11  C   UNL     1      -4.826  -0.416  -1.735  1.00  0.00     0.029 C 
HETATM   12  C   UNL     1      -3.720   1.822  -1.429  1.00  0.00     0.029 C 
HETATM   13  CA  UNL     1      -3.906   0.232   0.526  1.00  0.00     0.336 C 
HETATM   14  N   UNL     1      -2.812  -0.501   1.171  1.00  0.00     0.116 N 
HETATM   15  H   UNL     1      -3.027  -1.484   1.240  1.00  0.00     0.318 HD
BRANCH  13  16
HETATM   16  C   UNL     1      -3.981   1.615   1.119  1.00  0.00     0.175 C 
HETATM   17  OXT UNL     1      -3.007   2.102   1.643  1.00  0.00    -0.648 OA
BRANCH  16  18
HETATM   18  O   UNL     1      -5.130   2.307   1.064  1.00  0.00    -0.775 OA
HETATM   19  H   UNL     1      -5.130   3.190   1.458  1.00  0.00     0.167 HD
ENDBRANCH  16  18
ENDBRANCH  13  16
ENDBRANCH   5   8
ENDBRANCH   1   5
BRANCH   2  20
HETATM   20  CA  UNL     1       3.078  -1.549  -0.527  1.00  0.00     0.342 C 
BRANCH  20  21
HETATM   21  N   UNL     1       4.100  -2.523  -0.122  1.00  0.00     0.096 N 
HETATM   22  H1  UNL     1       4.373  -2.382   0.839  1.00  0.00     0.314 HD
HETATM   23  H2  UNL     1       3.779  -3.468  -0.271  1.00  0.00     0.314 HD
ENDBRANCH  20  21
BRANCH  20  24
HETATM   24  C   UNL     1       3.628  -0.154  -0.382  1.00  0.00    -0.016 A 
HETATM   25  C   UNL     1       3.345   0.803  -1.339  1.00  0.00     0.012 A 
HETATM   26  C   UNL     1       3.848   2.083  -1.207  1.00  0.00     0.037 A 
HETATM   27  C   UNL     1       4.637   2.408  -0.114  1.00  0.00     0.065 A 
HETATM   28  C   UNL     1       4.919   1.446   0.845  1.00  0.00     0.037 A 
HETATM   29  C   UNL     1       4.409   0.169   0.712  1.00  0.00     0.012 A 
BRANCH  27  30
HETATM   30  O   UNL     1       5.133   3.667   0.018  1.00  0.00    -0.361 OA
HETATM   31  H   UNL     1       4.555   4.268   0.506  1.00  0.00     0.217 HD
ENDBRANCH  27  30
ENDBRANCH  20  24
ENDBRANCH   2  20
TORSDOF 9
