REMARK  7 active torsions:
REMARK  status: ('A' for Active; 'I' for Inactive)
REMARK    1  A    between atoms: B_1  and  O_2 
REMARK    2  A    between atoms: B_1  and  O_3 
REMARK    3  A    between atoms: B_1  and  C_4 
REMARK    4  A    between atoms: C_7  and  C_10 
REMARK    5  A    between atoms: C_13  and  B_16 
REMARK    6  A    between atoms: B_16  and  O_17 
REMARK    7  A    between atoms: B_16  and  O_18 
ROOT
HETATM    1  C   UNL     1       0.000   0.000   3.506  1.00  0.00    -0.032 A 
HETATM    2  C   UNL     1      -1.135   0.415   2.810  1.00  0.00     0.001 A 
HETATM    3  C   UNL     1      -1.137   0.415   1.433  1.00  0.00     0.012 A 
HETATM    4  C   UNL     1      -0.003   0.000   0.734  1.00  0.00    -0.026 A 
HETATM    5  C   UNL     1       1.132  -0.415   1.431  1.00  0.00     0.012 A 
HETATM    6  C   UNL     1       1.134  -0.411   2.808  1.00  0.00     0.001 A 
ENDROOT
BRANCH   4   7
HETATM    7  C   UNL     1      -0.004   0.000  -0.747  1.00  0.00    -0.026 A 
HETATM    8  C   UNL     1       1.133   0.404  -1.446  1.00  0.00     0.012 A 
HETATM    9  C   UNL     1       1.131   0.403  -2.824  1.00  0.00     0.001 A 
HETATM   10  C   UNL     1      -0.006  -0.002  -3.520  1.00  0.00    -0.032 A 
HETATM   11  C   UNL     1      -1.144  -0.407  -2.821  1.00  0.00     0.001 A 
HETATM   12  C   UNL     1      -1.141  -0.411  -1.444  1.00  0.00     0.012 A 
BRANCH  10  13
HETATM   13  B   UNL     1      -0.008  -0.003  -5.090  1.00  0.00     0.529 B 
BRANCH  13  14
HETATM   14  O   UNL     1      -1.167  -0.416  -5.798  1.00  0.00    -0.433 OA
HETATM   15  H   UNL     1      -0.959  -0.342  -6.740  1.00  0.00     0.185 HD
ENDBRANCH  13  14
BRANCH  13  16
HETATM   16  O   UNL     1       1.149   0.409  -5.801  1.00  0.00    -0.433 OA
HETATM   17  H   UNL     1       1.814   0.646  -5.140  1.00  0.00     0.185 HD
ENDBRANCH  13  16
ENDBRANCH  10  13
ENDBRANCH   4   7
BRANCH   1  18
HETATM   18  B   UNL     1       0.000   0.000   5.076  1.00  0.00     0.529 B 
BRANCH  18  19
HETATM   19  O   UNL     1       1.155  -0.424   5.785  1.00  0.00    -0.433 OA
HETATM   20  H   UNL     1       0.949  -0.348   6.727  1.00  0.00     0.185 HD
ENDBRANCH  18  19
BRANCH  18  21
HETATM   21  O   UNL     1      -1.153   0.422   5.787  1.00  0.00    -0.433 OA
HETATM   22  H   UNL     1      -0.945   0.346   6.729  1.00  0.00     0.185 HD
ENDBRANCH  18  21
ENDBRANCH   1  18
TORSDOF 7
