REMARK  7 active torsions:
REMARK  status: ('A' for Active; 'I' for Inactive)
REMARK    1  A    between atoms: C_1  and  B_9 
REMARK    2  A    between atoms: C_1  and  N_2 
REMARK       I    between atoms: N_2  and  C_3 
REMARK    3  A    between atoms: C_3  and  C_5 
REMARK    4  A    between atoms: C_5  and  C_6 
REMARK    5  A    between atoms: C_6  and  S_7 
REMARK    6  A    between atoms: B_9  and  O_11 
REMARK    7  A    between atoms: B_9  and  O_10 
ROOT
HETATM    1  N   UNL     1      -1.035   0.920   0.250  1.00  0.00    -0.364 N 
HETATM    2  C   UNL     1       0.006   0.310  -0.349  1.00  0.00     0.221 C 
HETATM    3  O   UNL     1      -0.143  -0.228  -1.426  1.00  0.00    -0.273 OA
HETATM    4  H   UNL     1      -0.916   1.350   1.111  1.00  0.00     0.161 HD
ENDROOT
BRANCH   1   5
HETATM    5  C   UNL     1      -2.348   0.934  -0.400  1.00  0.00     0.143 C 
BRANCH   5   6
HETATM    6  B   UNL     1      -3.215  -0.256   0.145  1.00  0.00     0.510 B 
BRANCH   6   7
HETATM    7  O   UNL     1      -2.585  -1.453   0.577  1.00  0.00    -0.436 OA
HETATM    8  H   UNL     1      -3.200  -2.128   0.896  1.00  0.00     0.184 HD
ENDBRANCH   6   7
BRANCH   6   9
HETATM    9  O   UNL     1      -4.628  -0.135   0.207  1.00  0.00    -0.436 OA
HETATM   10  H   UNL     1      -5.075  -0.919   0.556  1.00  0.00     0.184 HD
ENDBRANCH   6   9
ENDBRANCH   5   6
ENDBRANCH   1   5
BRANCH   2  11
HETATM   11  C   UNL     1       1.357   0.295   0.319  1.00  0.00     0.083 C 
HETATM   12  C   UNL     1       1.839   1.733   0.525  1.00  0.00     0.020 C 
BRANCH  11  13
HETATM   13  C   UNL     1       2.355  -0.456  -0.564  1.00  0.00     0.084 C 
BRANCH  13  14
HETATM   14  S   UNL     1       3.941  -0.602   0.305  1.00  0.00    -0.181 SA
HETATM   15  H   UNL     1       4.707  -1.271  -0.575  1.00  0.00     0.101 HD
ENDBRANCH  13  14
ENDBRANCH  11  13
ENDBRANCH   2  11
TORSDOF 7
