REMARK  4 active torsions:
REMARK  status: ('A' for Active; 'I' for Inactive)
REMARK    1  A    between atoms: C_2  and  C_3 
REMARK    2  A    between atoms: C_2  and  O_14 
REMARK    3  A    between atoms: CA_10  and  C_11 
REMARK    4  A    between atoms: C_11  and  OXT_13 
ROOT
HETATM    1  C   UNL     1      -1.311  -0.005  -0.118  1.00  0.00     0.089 C 
HETATM    2  C   UNL     1      -0.897   0.630  -1.226  1.00  0.00     0.109 C 
HETATM    3  N   UNL     1       0.383   0.624  -1.692  1.00  0.00    -0.382 N 
HETATM    4  S   UNL     1      -0.187  -0.915   0.891  1.00  0.00    -0.110 SA
HETATM    5  C   UNL     1       1.247  -1.109  -0.210  1.00  0.00     0.036 C 
HETATM    6  C   UNL     1       0.934  -2.144  -1.293  1.00  0.00     0.030 C 
HETATM    7  C   UNL     1       2.465  -1.558   0.599  1.00  0.00     0.030 C 
HETATM    8  CA  UNL     1       1.527   0.255  -0.858  1.00  0.00     0.198 C 
HETATM    9  H   UNL     1       0.542   0.875  -2.615  1.00  0.00     0.160 HD
ENDROOT
BRANCH   1  10
HETATM   10  C   UNL     1      -2.677   0.063   0.251  1.00  0.00     0.184 C 
HETATM   11  O   UNL     1      -3.065  -0.508   1.253  1.00  0.00    -0.646 OA
BRANCH  10  12
HETATM   12  O   UNL     1      -3.548   0.756  -0.512  1.00  0.00    -0.772 OA
HETATM   13  H   UNL     1      -4.457   0.741  -0.183  1.00  0.00     0.167 HD
ENDBRANCH  10  12
ENDBRANCH   1  10
BRANCH   8  14
HETATM   14  C   UNL     1       1.722   1.291   0.219  1.00  0.00     0.165 C 
HETATM   15  O   UNL     1       0.812   2.025   0.523  1.00  0.00    -0.648 OA
BRANCH  14  16
HETATM   16  OXT UNL     1       2.907   1.397   0.841  1.00  0.00    -0.775 OA
HETATM   17  HXT UNL     1       2.984   2.076   1.525  1.00  0.00     0.167 HD
ENDBRANCH  14  16
ENDBRANCH   8  14
TORSDOF 4
