REMARK  11 active torsions:
REMARK  status: ('A' for Active; 'I' for Inactive)
REMARK    1  A    between atoms: C_2  and  C_7 
REMARK       I    between atoms: C_7  and  N_9 
REMARK    2  A    between atoms: N_9  and  C_10 
REMARK    3  A    between atoms: C_10  and  C_11 
REMARK    4  A    between atoms: C_10  and  C_18 
REMARK    5  A    between atoms: C_11  and  C_12 
REMARK       I    between atoms: C_18  and  N_20 
REMARK    6  A    between atoms: N_20  and  C_21 
REMARK    7  A    between atoms: C_21  and  C_22 
REMARK    8  A    between atoms: C_21  and  B_26 
REMARK    9  A    between atoms: C_22  and  C_23 
REMARK   10  A    between atoms: B_26  and  O_27 
REMARK   11  A    between atoms: B_26  and  O_28 
ROOT
HETATM    1  C   UNL     1      -0.085  -0.301   0.231  1.00  0.00     0.181 C 
ENDROOT
BRANCH   1   2
HETATM    2  N   UNL     1      -1.158   0.649  -0.073  1.00  0.00    -0.342 N 
HETATM    3  C   UNL     1      -2.358   0.526   0.528  1.00  0.00     0.272 C 
HETATM    4  O   UNL     1      -2.550  -0.374   1.322  1.00  0.00    -0.266 OA
HETATM    5  H   UNL     1      -1.004   1.367  -0.707  1.00  0.00     0.163 HD
BRANCH   3   6
HETATM    6  C   UNL     1      -3.442   1.487   0.220  1.00  0.00     0.141 A 
HETATM    7  N   UNL     1      -3.232   2.476  -0.644  1.00  0.00    -0.253 NA
HETATM    8  C   UNL     1      -4.201   3.326  -0.919  1.00  0.00     0.136 A 
HETATM    9  C   UNL     1      -5.436   3.198  -0.300  1.00  0.00     0.135 A 
HETATM   10  N   UNL     1      -5.649   2.221   0.564  1.00  0.00    -0.269 NA
HETATM   11  C   UNL     1      -4.685   1.361   0.841  1.00  0.00     0.153 A 
ENDBRANCH   3   6
ENDBRANCH   1   2
BRANCH   1  12
HETATM   12  C   UNL     1      -0.236  -1.541  -0.653  1.00  0.00     0.073 C 
BRANCH  12  13
HETATM   13  C   UNL     1      -1.515  -2.256  -0.301  1.00  0.00    -0.056 A 
HETATM   14  C   UNL     1      -1.511  -3.240   0.670  1.00  0.00     0.007 A 
HETATM   15  C   UNL     1      -2.684  -3.894   0.997  1.00  0.00     0.001 A 
HETATM   16  C   UNL     1      -3.860  -3.569   0.346  1.00  0.00     0.000 A 
HETATM   17  C   UNL     1      -3.863  -2.589  -0.629  1.00  0.00     0.001 A 
HETATM   18  C   UNL     1      -2.690  -1.933  -0.952  1.00  0.00     0.007 A 
ENDBRANCH  12  13
ENDBRANCH   1  12
BRANCH   1  19
HETATM   19  C   UNL     1       1.250   0.346  -0.035  1.00  0.00     0.240 C 
HETATM   20  O   UNL     1       1.300   1.488  -0.439  1.00  0.00    -0.271 OA
HETATM   21  N   UNL     1       2.388  -0.345   0.175  1.00  0.00    -0.358 N 
HETATM   22  H   UNL     1       2.347  -1.259   0.498  1.00  0.00     0.162 HD
BRANCH  21  23
HETATM   23  C   UNL     1       3.685   0.284  -0.083  1.00  0.00     0.111 C 
BRANCH  23  24
HETATM   24  C   UNL     1       4.637  -0.015   1.076  1.00  0.00     0.024 C 
BRANCH  24  25
HETATM   25  C   UNL     1       5.936   0.770   0.885  1.00  0.00    -0.021 C 
HETATM   26  C   UNL     1       5.644   2.269   0.977  1.00  0.00     0.009 C 
HETATM   27  C   UNL     1       6.935   0.378   1.976  1.00  0.00     0.009 C 
ENDBRANCH  24  25
ENDBRANCH  23  24
BRANCH  23  28
HETATM   28  B   UNL     1       4.288  -0.288  -1.416  1.00  0.00     0.515 B 
BRANCH  28  29
HETATM   29  O   UNL     1       3.430  -0.616  -2.499  1.00  0.00    -0.436 OA
HETATM   30  H   UNL     1       2.529  -0.414  -2.213  1.00  0.00     0.184 HD
ENDBRANCH  28  29
BRANCH  28  31
HETATM   31  O   UNL     1       5.690  -0.477  -1.537  1.00  0.00    -0.436 OA
HETATM   32  H   UNL     1       5.848  -0.833  -2.423  1.00  0.00     0.184 HD
ENDBRANCH  28  31
ENDBRANCH  23  28
ENDBRANCH  21  23
ENDBRANCH   1  19
TORSDOF 11
