REMARK  8 active torsions:
REMARK  status: ('A' for Active; 'I' for Inactive)
REMARK    1  A    between atoms: C_1  and  C_12 
REMARK    2  A    between atoms: C_1  and  B_9 
REMARK    3  A    between atoms: C_1  and  N_2 
REMARK       I    between atoms: N_2  and  C_3 
REMARK    4  A    between atoms: C_3  and  C_5 
REMARK    5  A    between atoms: C_5  and  C_6 
REMARK    6  A    between atoms: C_6  and  S_7 
REMARK    7  A    between atoms: B_9  and  O_10 
REMARK    8  A    between atoms: B_9  and  O_11 
ROOT
HETATM    1  C   UNL     1      -0.640  -0.877   0.499  1.00  0.00     0.143 C 
ENDROOT
BRANCH   1   2
HETATM    2  C   UNL     1      -1.873  -0.039   0.281  1.00  0.00    -0.039 A 
HETATM    3  C   UNL     1      -1.807   1.335   0.411  1.00  0.00     0.011 A 
HETATM    4  C   UNL     1      -2.936   2.105   0.207  1.00  0.00     0.043 A 
HETATM    5  C   UNL     1      -4.137   1.498  -0.119  1.00  0.00     0.116 A 
HETATM    6  C   UNL     1      -4.204   0.121  -0.244  1.00  0.00     0.043 A 
HETATM    7  F   UNL     1      -5.242   2.250  -0.320  1.00  0.00    -0.206 F 
HETATM    8  C   UNL     1      -3.072  -0.646  -0.044  1.00  0.00     0.011 A 
ENDBRANCH   1   2
BRANCH   1   9
HETATM    9  B   UNL     1      -0.882  -2.322  -0.066  1.00  0.00     0.519 B 
BRANCH   9  10
HETATM   10  O   UNL     1      -0.557  -2.620  -1.415  1.00  0.00    -0.436 OA
HETATM   11  H   UNL     1      -0.192  -1.871  -1.907  1.00  0.00     0.184 HD
ENDBRANCH   9  10
BRANCH   9  12
HETATM   12  O   UNL     1      -1.427  -3.330   0.773  1.00  0.00    -0.436 OA
HETATM   13  H   UNL     1      -1.616  -3.033   1.673  1.00  0.00     0.184 HD
ENDBRANCH   9  12
ENDBRANCH   1   9
BRANCH   1  14
HETATM   14  N   UNL     1       0.495  -0.265  -0.195  1.00  0.00    -0.355 N 
HETATM   15  C   UNL     1       1.686  -0.154   0.427  1.00  0.00     0.222 C 
HETATM   16  O   UNL     1       1.817  -0.561   1.562  1.00  0.00    -0.273 OA
HETATM   17  H   UNL     1       0.391   0.060  -1.103  1.00  0.00     0.162 HD
BRANCH  15  18
HETATM   18  C   UNL     1       2.854   0.475  -0.287  1.00  0.00     0.083 C 
HETATM   19  C   UNL     1       3.171  -0.326  -1.551  1.00  0.00     0.020 C 
BRANCH  18  20
HETATM   20  C   UNL     1       4.075   0.477   0.635  1.00  0.00     0.084 C 
BRANCH  20  21
HETATM   21  S   UNL     1       5.437   1.366  -0.167  1.00  0.00    -0.181 SA
HETATM   22  H   UNL     1       6.425   1.289   0.742  1.00  0.00     0.101 HD
ENDBRANCH  20  21
ENDBRANCH  18  20
ENDBRANCH  15  18
ENDBRANCH   1  14
TORSDOF 8
