REMARK  8 active torsions:
REMARK  status: ('A' for Active; 'I' for Inactive)
REMARK    1  A    between atoms: C_4  and  C_8 
REMARK    2  A    between atoms: C_8  and  B_15 
REMARK    3  A    between atoms: C_8  and  N_9 
REMARK       I    between atoms: N_9  and  C_10 
REMARK    4  A    between atoms: C_10  and  C_11 
REMARK    5  A    between atoms: C_11  and  C_12 
REMARK    6  A    between atoms: C_12  and  S_13 
REMARK    7  A    between atoms: B_15  and  O_16 
REMARK    8  A    between atoms: B_15  and  O_17 
ROOT
HETATM    1  C   UNL     1       0.692  -0.922   0.791  1.00  0.00     0.143 C 
ENDROOT
BRANCH   1   2
HETATM    2  C   UNL     1       1.969  -0.202   0.444  1.00  0.00    -0.039 A 
HETATM    3  C   UNL     1       3.128  -0.473   1.148  1.00  0.00     0.011 A 
HETATM    4  C   UNL     1       4.299   0.191   0.834  1.00  0.00     0.043 A 
HETATM    5  C   UNL     1       4.311   1.127  -0.185  1.00  0.00     0.116 A 
HETATM    6  C   UNL     1       3.150   1.398  -0.890  1.00  0.00     0.043 A 
HETATM    7  F   UNL     1       5.455   1.777  -0.493  1.00  0.00    -0.206 F 
HETATM    8  C   UNL     1       1.982   0.728  -0.578  1.00  0.00     0.011 A 
ENDBRANCH   1   2
BRANCH   1   9
HETATM    9  B   UNL     1       0.392  -2.011  -0.300  1.00  0.00     0.519 B 
BRANCH   9  10
HETATM   10  O   UNL     1       0.821  -1.812  -1.639  1.00  0.00    -0.436 OA
HETATM   11  H   UNL     1       1.289  -0.978  -1.782  1.00  0.00     0.184 HD
ENDBRANCH   9  10
BRANCH   9  12
HETATM   12  O   UNL     1      -0.309  -3.195   0.052  1.00  0.00    -0.436 OA
HETATM   13  H   UNL     1      -0.560  -3.240   0.985  1.00  0.00     0.184 HD
ENDBRANCH   9  12
ENDBRANCH   1   9
BRANCH   1  14
HETATM   14  N   UNL     1      -0.413   0.039   0.838  1.00  0.00    -0.355 N 
HETATM   15  C   UNL     1      -1.589  -0.257   0.250  1.00  0.00     0.222 C 
HETATM   16  O   UNL     1      -1.733  -1.318  -0.319  1.00  0.00    -0.273 OA
HETATM   17  H   UNL     1      -0.298   0.888   1.293  1.00  0.00     0.162 HD
BRANCH  15  18
HETATM   18  C   UNL     1      -2.725   0.732   0.299  1.00  0.00     0.083 C 
HETATM   19  C   UNL     1      -3.100   1.006   1.757  1.00  0.00     0.020 C 
BRANCH  18  20
HETATM   20  C   UNL     1      -3.935   0.155  -0.438  1.00  0.00     0.084 C 
BRANCH  20  21
HETATM   21  S   UNL     1      -5.252   1.401  -0.508  1.00  0.00    -0.181 SA
HETATM   22  H   UNL     1      -6.234   0.766  -1.171  1.00  0.00     0.101 HD
ENDBRANCH  20  21
ENDBRANCH  18  20
ENDBRANCH  15  18
ENDBRANCH   1  14
TORSDOF 8
