REMARK  3 active torsions:
REMARK  status: ('A' for Active; 'I' for Inactive)
REMARK    1  A    between atoms: B_1  and  O_2 
REMARK    2  A    between atoms: B_1  and  O_3 
REMARK    3  A    between atoms: B_1  and  C_4 
ROOT
HETATM    1  C   UNL     1      -0.089   0.000   1.282  1.00  0.00     0.010 A 
HETATM    2  C   UNL     1      -1.059  -0.005   0.331  1.00  0.00     0.021 A 
HETATM    3  C   UNL     1       0.681   0.000  -1.298  1.00  0.00     0.014 A 
HETATM    4  C   UNL     1      -0.709   0.000  -1.030  1.00  0.00    -0.019 A 
HETATM    5  C   UNL     1       1.181   0.000  -2.582  1.00  0.00     0.019 A 
HETATM    6  S   UNL     1       1.412   0.000   0.319  1.00  0.00    -0.101 SA
HETATM    7  C   UNL     1      -1.568   0.001  -2.159  1.00  0.00     0.013 A 
HETATM    8  C   UNL     1       0.309   0.000  -3.652  1.00  0.00     0.001 A 
HETATM    9  C   UNL     1      -1.060   0.000  -3.418  1.00  0.00     0.001 A 
ENDROOT
BRANCH   1  10
HETATM   10  B   UNL     1      -0.250   0.000   2.843  1.00  0.00     0.536 B 
BRANCH  10  11
HETATM   11  O   UNL     1       0.899   0.000   3.676  1.00  0.00    -0.433 OA
HETATM   12  H   UNL     1       0.583   0.000   4.590  1.00  0.00     0.185 HD
ENDBRANCH  10  11
BRANCH  10  13
HETATM   13  O   UNL     1      -1.546   0.000   3.424  1.00  0.00    -0.433 OA
HETATM   14  H   UNL     1      -1.423   0.000   4.383  1.00  0.00     0.185 HD
ENDBRANCH  10  13
ENDBRANCH   1  10
TORSDOF 3
