REMARK  5 active torsions:
REMARK  status: ('A' for Active; 'I' for Inactive)
REMARK    1  A    between atoms: O_1  and  B_2 
REMARK    2  A    between atoms: C_7  and  N_8 
REMARK       I    between atoms: N_8  and  C_9 
REMARK    3  A    between atoms: C_9  and  C_11 
REMARK    4  A    between atoms: C_20  and  C_21 
REMARK    5  A    between atoms: C_21  and  O_23 
ROOT
HETATM    1  B   UNL     1       0.697   0.952  -0.496  1.00  0.00     0.522 B 
HETATM    2  O   UNL     1       2.072   1.013  -0.138  1.00  0.00    -0.386 OA
HETATM    3  C   UNL     1       2.688  -0.192  -0.032  1.00  0.00     0.075 A 
HETATM    4  C   UNL     1       2.021  -1.400  -0.038  1.00  0.00    -0.024 A 
HETATM    5  C   UNL     1       0.526  -1.522  -0.188  1.00  0.00     0.062 C 
HETATM    6  C   UNL     1      -0.157  -0.195   0.177  1.00  0.00     0.115 C 
HETATM    7  C   UNL     1       2.741  -2.581   0.092  1.00  0.00     0.010 A 
HETATM    8  C   UNL     1       4.117  -2.569   0.218  1.00  0.00     0.002 A 
HETATM    9  C   UNL     1       4.799  -1.372   0.216  1.00  0.00     0.021 A 
HETATM   10  C   UNL     1       4.092  -0.176   0.092  1.00  0.00     0.070 A 
ENDROOT
BRANCH   6  11
HETATM   11  N   UNL     1      -1.525  -0.173  -0.346  1.00  0.00    -0.359 N 
HETATM   12  C   UNL     1      -2.529   0.310   0.413  1.00  0.00     0.221 C 
HETATM   13  O   UNL     1      -2.299   0.728   1.528  1.00  0.00    -0.273 OA
HETATM   14  H   UNL     1      -1.709  -0.507  -1.238  1.00  0.00     0.162 HD
BRANCH  12  15
HETATM   15  C   UNL     1      -3.937   0.333  -0.125  1.00  0.00     0.078 C 
HETATM   16  C   UNL     1      -4.875   0.926   0.928  1.00  0.00     0.014 C 
HETATM   17  C   UNL     1      -6.304   0.949   0.382  1.00  0.00     0.001 C 
HETATM   18  C   UNL     1      -6.746  -0.478   0.050  1.00  0.00     0.000 C 
HETATM   19  C   UNL     1      -5.808  -1.071  -1.003  1.00  0.00     0.001 C 
HETATM   20  C   UNL     1      -4.378  -1.094  -0.457  1.00  0.00     0.014 C 
ENDBRANCH  12  15
ENDBRANCH   6  11
BRANCH   1  21
HETATM   21  O   UNL     1       0.120   1.877  -1.406  1.00  0.00    -0.436 OA
HETATM   22  H   UNL     1       0.743   2.534  -1.747  1.00  0.00     0.185 HD
ENDBRANCH   1  21
BRANCH  10  23
HETATM   23  C   UNL     1       4.815   1.108   0.089  1.00  0.00     0.178 C 
HETATM   24  O   UNL     1       4.202   2.151  -0.020  1.00  0.00    -0.646 OA
BRANCH  23  25
HETATM   25  O   UNL     1       6.158   1.125   0.208  1.00  0.00    -0.773 OA
HETATM   26  H   UNL     1       6.588   1.992   0.201  1.00  0.00     0.167 HD
ENDBRANCH  23  25
ENDBRANCH  10  23
TORSDOF 5
