REMARK  5 active torsions:
REMARK  status: ('A' for Active; 'I' for Inactive)
REMARK    1  A    between atoms: S_2  and  O_5 
REMARK    2  A    between atoms: S_2  and  O_4 
REMARK    3  A    between atoms: O_5  and  N_6 
REMARK    4  A    between atoms: N_6  and  C_7 
REMARK    5  A    between atoms: N_13  and  C_14 
ROOT
HETATM    1  C   UNL     1      -0.290   0.066  -0.964  1.00  0.00     0.103 C 
HETATM    2  C   UNL     1      -0.580   1.518  -0.579  1.00  0.00     0.026 C 
HETATM    3  C   UNL     1      -2.093   1.747  -0.544  1.00  0.00     0.042 C 
HETATM    4  C   UNL     1      -2.718   0.832   0.515  1.00  0.00     0.194 C 
HETATM    5  C   UNL     1      -4.185   0.951   0.465  1.00  0.00     0.084 C 
HETATM    6  N   UNL     1      -5.316   1.043   0.427  1.00  0.00    -0.195 NA
HETATM    7  N   UNL     1      -2.324  -0.555   0.235  1.00  0.00    -0.341 N 
HETATM    8  C   UNL     1      -0.895  -0.868   0.090  1.00  0.00     0.148 C 
ENDROOT
BRANCH   7   9
HETATM    9  C   UNL     1      -3.254  -1.522   0.112  1.00  0.00     0.352 C 
HETATM   10  O   UNL     1      -2.924  -2.644  -0.209  1.00  0.00    -0.283 OA
ENDBRANCH   7   9
BRANCH   1  11
HETATM   11  N   UNL     1       1.162  -0.144  -1.028  1.00  0.00    -0.180 NA
HETATM   12  H   UNL     1       1.379  -1.078  -1.343  1.00  0.00     0.155 HD
BRANCH  11  13
HETATM   13  O   UNL     1       1.790   0.133   0.264  1.00  0.00    -0.167 OA
BRANCH  13  14
HETATM   14  S   UNL     1       3.299  -0.064   0.273  1.00  0.00     0.257 S 
HETATM   15  O   UNL     1       3.560  -1.209  -0.526  1.00  0.00    -0.578 OA
HETATM   16  O   UNL     1       3.710   0.048   1.629  1.00  0.00    -0.578 OA
BRANCH  14  17
HETATM   17  O   UNL     1       3.912   1.120  -0.461  1.00  0.00    -0.273 OA
HETATM   18  H   UNL     1       4.878   1.094  -0.512  1.00  0.00     0.234 HD
ENDBRANCH  14  17
ENDBRANCH  13  14
ENDBRANCH  11  13
ENDBRANCH   1  11
TORSDOF 5
