REMARK  10 active torsions:
REMARK  status: ('A' for Active; 'I' for Inactive)
REMARK    1  A    between atoms: C_1  and  B_30 
REMARK    2  A    between atoms: N_2  and  S_23 
REMARK    3  A    between atoms: N_2  and  C_12 
REMARK    4  A    between atoms: C_8  and  S_26 
REMARK    5  A    between atoms: O_10  and  B_30 
REMARK    6  A    between atoms: C_13  and  C_21 
REMARK    7  A    between atoms: C_15  and  S_23 
REMARK    8  A    between atoms: C_21  and  O_24 
REMARK    9  A    between atoms: O_25  and  B_30 
REMARK   10  A    between atoms: S_26  and  C_29 
ROOT
HETATM    1  N   UNL     1       2.113   1.128  -1.560  1.00  0.00    -0.279 N 
HETATM    2  H   UNL     1       2.212   2.019  -1.931  1.00  0.00     0.179 HD
ENDROOT
BRANCH   1   3
HETATM    3  S   UNL     1       0.940   0.115  -2.142  1.00  0.00     0.269 S 
HETATM    4  O   UNL     1       1.595  -1.096  -2.496  1.00  0.00    -0.200 OA
HETATM    5  O   UNL     1       0.169   0.878  -3.059  1.00  0.00    -0.200 OA
BRANCH   3   6
HETATM    6  C   UNL     1      -0.129  -0.274  -0.796  1.00  0.00     0.121 A 
HETATM    7  C   UNL     1      -1.217   0.417  -0.454  1.00  0.00     0.057 A 
HETATM    8  C   UNL     1      -1.902  -0.078   0.642  1.00  0.00     0.072 A 
HETATM    9  C   UNL     1      -1.367  -1.168   1.194  1.00  0.00     0.074 A 
HETATM   10  S   UNL     1       0.077  -1.632   0.303  1.00  0.00    -0.087 SA
BRANCH   8  11
HETATM   11  S   UNL     1      -3.366   0.679   1.266  1.00  0.00     0.207 S 
HETATM   12  O   UNL     1      -3.469   0.291   2.629  1.00  0.00    -0.217 OA
HETATM   13  O   UNL     1      -3.326   2.036   0.846  1.00  0.00    -0.217 OA
BRANCH  11  14
HETATM   14  C   UNL     1      -4.731  -0.060   0.433  1.00  0.00     0.064 A 
HETATM   15  C   UNL     1      -5.206   0.492  -0.741  1.00  0.00     0.024 A 
HETATM   16  C   UNL     1      -6.277  -0.088  -1.395  1.00  0.00     0.002 A 
HETATM   17  C   UNL     1      -6.878  -1.217  -0.870  1.00  0.00     0.000 A 
HETATM   18  C   UNL     1      -6.407  -1.766   0.308  1.00  0.00     0.002 A 
HETATM   19  C   UNL     1      -5.335  -1.186   0.961  1.00  0.00     0.024 A 
ENDBRANCH  11  14
ENDBRANCH   8  11
ENDBRANCH   3   6
ENDBRANCH   1   3
BRANCH   1  20
HETATM   20  C   UNL     1       2.955   0.703  -0.541  1.00  0.00     0.059 A 
HETATM   21  C   UNL     1       3.372  -0.621  -0.488  1.00  0.00     0.032 A 
HETATM   22  C   UNL     1       4.215  -1.042   0.533  1.00  0.00    -0.030 A 
HETATM   23  C   UNL     1       4.644  -0.139   1.506  1.00  0.00     0.002 A 
HETATM   24  C   UNL     1       4.235   1.175   1.461  1.00  0.00     0.020 A 
HETATM   25  C   UNL     1       3.388   1.609   0.439  1.00  0.00     0.065 A 
BRANCH  22  26
HETATM   26  B   UNL     1       4.681  -2.540   0.596  1.00  0.00     0.529 B 
BRANCH  26  27
HETATM   27  O   UNL     1       5.538  -2.974   1.642  1.00  0.00    -0.433 OA
HETATM   28  H   UNL     1       5.770  -3.912   1.597  1.00  0.00     0.185 HD
ENDBRANCH  26  27
BRANCH  26  29
HETATM   29  O   UNL     1       4.246  -3.461  -0.393  1.00  0.00    -0.433 OA
HETATM   30  H   UNL     1       4.584  -4.359  -0.271  1.00  0.00     0.185 HD
ENDBRANCH  26  29
ENDBRANCH  22  26
BRANCH  25  31
HETATM   31  C   UNL     1       2.949   3.017   0.390  1.00  0.00     0.178 C 
HETATM   32  O   UNL     1       2.213   3.394  -0.500  1.00  0.00    -0.646 OA
BRANCH  31  33
HETATM   33  O   UNL     1       3.366   3.886   1.332  1.00  0.00    -0.773 OA
HETATM   34  H   UNL     1       3.053   4.798   1.258  1.00  0.00     0.167 HD
ENDBRANCH  31  33
ENDBRANCH  25  31
ENDBRANCH   1  20
TORSDOF 10
