REMARK  11 active torsions:
REMARK  status: ('A' for Active; 'I' for Inactive)
REMARK    1  A    between atoms: B_1  and  O_2 
REMARK    2  A    between atoms: B_1  and  O_3 
REMARK    3  A    between atoms: B_1  and  C_4 
REMARK    4  A    between atoms: C_4  and  N_5 
REMARK       I    between atoms: N_5  and  C_6 
REMARK    5  A    between atoms: C_6  and  C_8 
REMARK    6  A    between atoms: C_8  and  C_12 
REMARK    7  A    between atoms: N_9  and  O_10 
REMARK    8  A    between atoms: O_10  and  C_11 
REMARK    9  A    between atoms: C_11  and  C_20 
REMARK   10  A    between atoms: C_15  and  N_16 
REMARK   11  A    between atoms: C_20  and  O_22 
ROOT
HETATM    1  C   UNL     1      -0.043   0.427  -0.247  1.00  0.00     0.180 C 
HETATM    2  N   UNL     1       1.199   0.787  -0.086  1.00  0.00    -0.125 NA
ENDROOT
BRANCH   1   3
HETATM    3  C   UNL     1      -0.371  -0.982  -0.567  1.00  0.00     0.274 C 
HETATM    4  N   UNL     1      -1.638  -1.327  -0.868  1.00  0.00    -0.359 N 
HETATM    5  H   UNL     1      -2.320  -0.642  -0.954  1.00  0.00     0.161 HD
HETATM    6  O   UNL     1       0.503  -1.826  -0.558  1.00  0.00    -0.266 OA
BRANCH   4   7
HETATM    7  C   UNL     1      -1.986  -2.736  -1.067  1.00  0.00     0.143 C 
BRANCH   7   8
HETATM    8  B   UNL     1      -2.540  -3.332   0.276  1.00  0.00     0.510 B 
BRANCH   8   9
HETATM    9  O   UNL     1      -2.634  -2.512   1.432  1.00  0.00    -0.436 OA
HETATM   10  H   UNL     1      -2.311  -1.636   1.180  1.00  0.00     0.184 HD
ENDBRANCH   8   9
BRANCH   8  11
HETATM   11  O   UNL     1      -2.947  -4.691   0.335  1.00  0.00    -0.436 OA
HETATM   12  H   UNL     1      -3.251  -4.853   1.238  1.00  0.00     0.184 HD
ENDBRANCH   8  11
ENDBRANCH   7   8
ENDBRANCH   4   7
ENDBRANCH   1   3
BRANCH   1  13
HETATM   13  C   UNL     1      -1.125   1.426  -0.110  1.00  0.00     0.102 A 
HETATM   14  C   UNL     1      -0.829   2.759  -0.009  1.00  0.00     0.087 A 
HETATM   15  S   UNL     1      -2.470   3.455   0.127  1.00  0.00    -0.062 SA
HETATM   16  C   UNL     1      -3.377   1.918   0.037  1.00  0.00     0.164 A 
HETATM   17  N   UNL     1      -2.400   1.040  -0.089  1.00  0.00    -0.222 NA
BRANCH  16  18
HETATM   18  N   UNL     1      -4.744   1.704   0.082  1.00  0.00    -0.378 N 
HETATM   19  H   UNL     1      -5.350   2.457   0.175  1.00  0.00     0.158 HD
HETATM   20  H   UNL     1      -5.097   0.803   0.020  1.00  0.00     0.158 HD
ENDBRANCH  16  18
ENDBRANCH   1  13
BRANCH   2  21
HETATM   21  O   UNL     1       2.225  -0.190  -0.086  1.00  0.00    -0.234 OA
BRANCH  21  22
HETATM   22  C   UNL     1       3.458   0.506   0.109  1.00  0.00     0.168 C 
HETATM   23  C   UNL     1       3.663   1.509  -1.028  1.00  0.00     0.060 C 
HETATM   24  C   UNL     1       3.417   1.250   1.445  1.00  0.00     0.060 C 
BRANCH  22  25
HETATM   25  C   UNL     1       4.596  -0.482   0.119  1.00  0.00     0.178 C 
HETATM   26  O   UNL     1       4.374  -1.661  -0.027  1.00  0.00    -0.648 OA
BRANCH  25  27
HETATM   27  O   UNL     1       5.856  -0.053   0.289  1.00  0.00    -0.774 OA
HETATM   28  H   UNL     1       6.586  -0.687   0.295  1.00  0.00     0.167 HD
ENDBRANCH  25  27
ENDBRANCH  22  25
ENDBRANCH  21  22
ENDBRANCH   2  21
TORSDOF 11
