REMARK  9 active torsions:
REMARK  status: ('A' for Active; 'I' for Inactive)
REMARK    1  A    between atoms: C_1  and  CA_4 
REMARK    2  A    between atoms: N_2  and  CA_4 
REMARK       I    between atoms: N_2  and  C_22 
REMARK    3  A    between atoms: CA_4  and  C_5 
REMARK    4  A    between atoms: OXT_11  and  C_20 
REMARK    5  A    between atoms: O_12  and  C_21 
REMARK    6  A    between atoms: C_20  and  CA_24 
REMARK    7  A    between atoms: C_21  and  C_25 
REMARK    8  A    between atoms: C_22  and  C_25 
REMARK    9  A    between atoms: C_23  and  C_25 
ROOT
HETATM    1  N   UNL     1       0.513  -0.287  -0.224  1.00  0.00    -0.346 N 
HETATM    2  O   UNL     1       2.122  -0.814   1.210  1.00  0.00    -0.272 OA
HETATM    3  C   UNL     1       1.810  -0.340   0.138  1.00  0.00     0.237 C 
HETATM    4  H   UNL     1       0.264   0.092  -1.081  1.00  0.00     0.163 HD
ENDROOT
BRANCH   1   5
HETATM    5  CA  UNL     1      -0.520  -0.803   0.677  1.00  0.00     0.189 C 
BRANCH   5   6
HETATM    6  C   UNL     1      -0.672  -2.288   0.470  1.00  0.00     0.259 C 
HETATM    7  O   UNL     1       0.012  -2.856  -0.346  1.00  0.00    -0.305 OA
ENDBRANCH   5   6
BRANCH   5   8
HETATM    8  C   UNL     1      -1.850  -0.107   0.379  1.00  0.00     0.312 C 
HETATM    9  N   UNL     1      -2.930  -0.605   1.277  1.00  0.00     0.116 N 
HETATM   10  CA  UNL     1      -4.253  -0.313   0.717  1.00  0.00     0.336 C 
HETATM   11  H   UNL     1      -2.823  -1.592   1.457  1.00  0.00     0.318 HD
HETATM   12  C   UNL     1      -4.268  -0.329  -0.823  1.00  0.00     0.044 C 
HETATM   13  C   UNL     1      -5.142  -1.472  -1.342  1.00  0.00     0.029 C 
HETATM   14  C   UNL     1      -4.755   1.013  -1.374  1.00  0.00     0.029 C 
HETATM   15  S   UNL     1      -2.507  -0.609  -1.266  1.00  0.00    -0.119 SA
BRANCH  10  16
HETATM   16  C   UNL     1      -4.693   1.047   1.194  1.00  0.00     0.175 C 
HETATM   17  O   UNL     1      -3.878   1.828   1.626  1.00  0.00    -0.648 OA
BRANCH  16  18
HETATM   18  OXT UNL     1      -5.989   1.391   1.138  1.00  0.00    -0.775 OA
HETATM   19  HXT UNL     1      -6.223   2.274   1.455  1.00  0.00     0.167 HD
ENDBRANCH  16  18
ENDBRANCH  10  16
ENDBRANCH   5   8
ENDBRANCH   1   5
BRANCH   3  20
HETATM   20  C   UNL     1       2.873   0.191  -0.789  1.00  0.00     0.208 C 
BRANCH  20  21
HETATM   21  C   UNL     1       2.627   1.655  -1.050  1.00  0.00     0.157 C 
HETATM   22  O   UNL     1       1.685   2.210  -0.536  1.00  0.00    -0.649 OA
BRANCH  21  23
HETATM   23  O   UNL     1       3.455   2.341  -1.854  1.00  0.00    -0.775 OA
HETATM   24  H   UNL     1       3.256   3.278  -1.991  1.00  0.00     0.167 HD
ENDBRANCH  21  23
ENDBRANCH  20  21
BRANCH  20  25
HETATM   25  C   UNL     1       4.228   0.015  -0.153  1.00  0.00    -0.035 A 
HETATM   26  C   UNL     1       5.192  -0.753  -0.779  1.00  0.00     0.008 A 
HETATM   27  C   UNL     1       6.435  -0.914  -0.196  1.00  0.00     0.001 A 
HETATM   28  C   UNL     1       6.714  -0.306   1.013  1.00  0.00     0.000 A 
HETATM   29  C   UNL     1       5.750   0.461   1.641  1.00  0.00     0.001 A 
HETATM   30  C   UNL     1       4.508   0.622   1.057  1.00  0.00     0.008 A 
ENDBRANCH  20  25
ENDBRANCH   3  20
TORSDOF 9
