REMARK  7 active torsions:
REMARK  status: ('A' for Active; 'I' for Inactive)
REMARK    1  A    between atoms: OXT_6  and  C_18 
REMARK       I    between atoms: N_14  and  C_19 
REMARK    2  A    between atoms: N_14  and  C_24 
REMARK    3  A    between atoms: O_15  and  C_24 
REMARK    4  A    between atoms: C_18  and  CA_21 
REMARK    5  A    between atoms: C_19  and  C_22 
REMARK    6  A    between atoms: C_20  and  C_24 
REMARK    7  A    between atoms: C_23  and  C_24 
ROOT
HETATM    1  C   UNL     1       0.089   1.514   0.483  1.00  0.00     0.223 C 
ENDROOT
BRANCH   1   2
HETATM    2  N   UNL     1      -1.132   0.715   0.611  1.00  0.00    -0.317 N 
HETATM    3  C   UNL     1      -1.889   0.463  -0.475  1.00  0.00     0.254 C 
HETATM    4  O   UNL     1      -1.559   0.899  -1.561  1.00  0.00    -0.268 OA
HETATM    5  H   UNL     1      -1.396   0.367   1.477  1.00  0.00     0.166 HD
BRANCH   3   6
HETATM    6  C   UNL     1      -3.121  -0.344  -0.346  1.00  0.00     0.032 A 
HETATM    7  C   UNL     1      -3.908  -0.607  -1.469  1.00  0.00     0.017 A 
HETATM    8  C   UNL     1      -5.056  -1.360  -1.342  1.00  0.00     0.001 A 
HETATM    9  C   UNL     1      -5.429  -1.856  -0.105  1.00  0.00     0.000 A 
HETATM   10  C   UNL     1      -4.654  -1.599   1.012  1.00  0.00     0.001 A 
HETATM   11  C   UNL     1      -3.503  -0.846   0.899  1.00  0.00     0.017 A 
ENDBRANCH   3   6
ENDBRANCH   1   2
BRANCH   1  12
HETATM   12  O   UNL     1       0.712   1.641   1.763  1.00  0.00    -0.357 OA
HETATM   13  C   UNL     1      -0.131   2.212   2.766  1.00  0.00     0.205 C 
ENDBRANCH   1  12
BRANCH   1  14
HETATM   14  C   UNL     1      -0.259   2.883  -0.044  1.00  0.00     0.295 C 
HETATM   15  O   UNL     1      -1.409   3.161  -0.287  1.00  0.00    -0.302 OA
ENDBRANCH   1  14
BRANCH   1  16
HETATM   16  C   UNL     1       1.051   0.824  -0.486  1.00  0.00     0.233 C 
HETATM   17  N   UNL     1       1.302  -0.534  -0.030  1.00  0.00    -0.261 NA
HETATM   18  CA  UNL     1       2.394  -1.189  -0.094  1.00  0.00     0.132 C 
HETATM   19  C   UNL     1       3.670  -0.701  -0.631  1.00  0.00    -0.023 C 
HETATM   20  C   UNL     1       4.792  -1.383  -0.420  1.00  0.00     0.022 C 
HETATM   21  C   UNL     1       3.695   0.588  -1.429  1.00  0.00     0.116 C 
HETATM   22  S   UNL     1       2.605   1.763  -0.560  1.00  0.00    -0.132 SA
BRANCH  18  23
HETATM   23  C   UNL     1       2.372  -2.582   0.427  1.00  0.00     0.195 C 
HETATM   24  O   UNL     1       3.342  -3.297   0.286  1.00  0.00    -0.645 OA
BRANCH  23  25
HETATM   25  OXT UNL     1       1.278  -3.049   1.055  1.00  0.00    -0.772 OA
HETATM   26  HXT UNL     1       1.311  -3.960   1.377  1.00  0.00     0.167 HD
ENDBRANCH  23  25
ENDBRANCH  18  23
ENDBRANCH   1  16
TORSDOF 7
