REMARK  7 active torsions:
REMARK  status: ('A' for Active; 'I' for Inactive)
REMARK    1  A    between atoms: CA_5  and  C_6 
REMARK    2  A    between atoms: C_6  and  O_7 
REMARK    3  A    between atoms: C_10  and  CA_11 
REMARK    4  A    between atoms: CA_11  and  C_12 
REMARK    5  A    between atoms: CA_11  and  N_14 
REMARK       I    between atoms: N_14  and  C_15 
REMARK    6  A    between atoms: C_15  and  C_17 
REMARK    7  A    between atoms: C_17  and  C_18 
ROOT
HETATM    1  CA  UNL     1       0.483   1.599   0.394  1.00  0.00     0.180 C 
ENDROOT
BRANCH   1   2
HETATM    2  C   UNL     1      -0.143   1.497   1.786  1.00  0.00     0.199 C 
HETATM    3  S   UNL     1      -1.899   1.069   1.618  1.00  0.00    -0.135 SA
HETATM    4  C   UNL     1      -2.277   0.732   3.367  1.00  0.00     0.116 C 
HETATM    5  C   UNL     1      -1.341  -0.371   3.817  1.00  0.00    -0.023 C 
HETATM    6  C   UNL     1      -1.792  -1.377   4.560  1.00  0.00     0.022 C 
HETATM    7  CA  UNL     1       0.074  -0.307   3.428  1.00  0.00     0.132 C 
HETATM    8  N   UNL     1       0.562   0.487   2.556  1.00  0.00    -0.264 NA
BRANCH   7   9
HETATM    9  C   UNL     1       1.012  -1.246   4.099  1.00  0.00     0.195 C 
HETATM   10  OXT UNL     1       0.625  -1.937   5.018  1.00  0.00    -0.645 OA
BRANCH   9  11
HETATM   11  O   UNL     1       2.291  -1.330   3.687  1.00  0.00    -0.772 OA
HETATM   12  H   UNL     1       2.900  -1.941   4.123  1.00  0.00     0.167 HD
ENDBRANCH   9  11
ENDBRANCH   7   9
ENDBRANCH   1   2
BRANCH   1  13
HETATM   13  C   UNL     1       1.934   1.986   0.524  1.00  0.00     0.259 C 
HETATM   14  O   UNL     1       2.794   1.255   0.095  1.00  0.00    -0.305 OA
ENDBRANCH   1  13
BRANCH   1  15
HETATM   15  N   UNL     1       0.382   0.304  -0.282  1.00  0.00    -0.347 N 
HETATM   16  C   UNL     1       0.282   0.252  -1.625  1.00  0.00     0.223 C 
HETATM   17  O   UNL     1       0.277   1.277  -2.273  1.00  0.00    -0.273 OA
HETATM   18  H   UNL     1       0.386  -0.515   0.235  1.00  0.00     0.163 HD
BRANCH  16  19
HETATM   19  C   UNL     1       0.178  -1.079  -2.322  1.00  0.00     0.148 C 
BRANCH  19  20
HETATM   20  C   UNL     1       0.079  -0.861  -3.810  1.00  0.00    -0.009 A 
HETATM   21  C   UNL     1       1.073  -0.775  -4.728  1.00  0.00     0.015 A 
HETATM   22  C   UNL     1       0.744  -0.573  -6.056  1.00  0.00     0.008 A 
HETATM   23  C   UNL     1      -0.562  -0.457  -6.398  1.00  0.00     0.050 A 
HETATM   24  S   UNL     1      -1.375  -0.642  -4.820  1.00  0.00    -0.106 SA
ENDBRANCH  19  20
ENDBRANCH  16  19
ENDBRANCH   1  15
TORSDOF 7
