REMARK  6 active torsions:
REMARK  status: ('A' for Active; 'I' for Inactive)
REMARK    1  A    between atoms: B_1  and  O_2 
REMARK    2  A    between atoms: B_1  and  O_3 
REMARK    3  A    between atoms: B_1  and  C_4 
REMARK    4  A    between atoms: C_4  and  N_5 
REMARK       I    between atoms: N_5  and  C_6 
REMARK    5  A    between atoms: C_6  and  C_8 
REMARK    6  A    between atoms: C_8  and  C_9 
ROOT
HETATM    1  N   UNL     1      -1.149   0.644   1.779  1.00  0.00    -0.364 N 
HETATM    2  C   UNL     1      -0.788   0.226   0.550  1.00  0.00     0.221 C 
HETATM    3  O   UNL     1      -0.393  -0.909   0.387  1.00  0.00    -0.273 OA
HETATM    4  H   UNL     1      -1.465   1.552   1.909  1.00  0.00     0.161 HD
ENDROOT
BRANCH   1   5
HETATM    5  C   UNL     1      -1.065  -0.272   2.919  1.00  0.00     0.143 C 
BRANCH   5   6
HETATM    6  B   UNL     1       0.353  -0.153   3.582  1.00  0.00     0.510 B 
BRANCH   6   7
HETATM    7  O   UNL     1       0.676  -0.948   4.713  1.00  0.00    -0.436 OA
HETATM    8  H   UNL     1       1.584  -0.725   4.961  1.00  0.00     0.184 HD
ENDBRANCH   6   7
BRANCH   6   9
HETATM    9  O   UNL     1       1.311   0.749   3.051  1.00  0.00    -0.436 OA
HETATM   10  H   UNL     1       2.105   0.667   3.597  1.00  0.00     0.184 HD
ENDBRANCH   6   9
ENDBRANCH   5   6
ENDBRANCH   1   5
BRANCH   2  11
HETATM   11  C   UNL     1      -0.875   1.169  -0.621  1.00  0.00     0.148 C 
BRANCH  11  12
HETATM   12  C   UNL     1      -0.417   0.461  -1.871  1.00  0.00    -0.009 A 
HETATM   13  C   UNL     1      -1.144  -0.262  -2.757  1.00  0.00     0.015 A 
HETATM   14  C   UNL     1      -0.506  -0.824  -3.846  1.00  0.00     0.008 A 
HETATM   15  C   UNL     1       0.829  -0.645  -3.990  1.00  0.00     0.050 A 
HETATM   16  S   UNL     1       1.224   0.350  -2.562  1.00  0.00    -0.106 SA
ENDBRANCH  11  12
ENDBRANCH   2  11
TORSDOF 6
