REMARK  8 active torsions:
REMARK  status: ('A' for Active; 'I' for Inactive)
REMARK    1  A    between atoms: O_2  and  N_3 
REMARK    2  A    between atoms: C_4  and  C_5 
REMARK    3  A    between atoms: C_4  and  C_12 
REMARK       I    between atoms: C_5  and  N_7 
REMARK    4  A    between atoms: N_7  and  C_8 
REMARK    5  A    between atoms: C_8  and  B_9 
REMARK    6  A    between atoms: B_9  and  O_10 
REMARK    7  A    between atoms: B_9  and  O_11 
REMARK    8  A    between atoms: C_15  and  N_16 
ROOT
HETATM    1  N   UNL     1      -0.808   2.441   0.111  1.00  0.00    -0.126 NA
HETATM    2  C   UNL     1      -0.452   1.211  -0.126  1.00  0.00     0.180 C 
ENDROOT
BRANCH   2   3
HETATM    3  C   UNL     1       0.956   0.900  -0.470  1.00  0.00     0.274 C 
HETATM    4  O   UNL     1       1.802   1.770  -0.410  1.00  0.00    -0.266 OA
HETATM    5  N   UNL     1       1.298  -0.347  -0.849  1.00  0.00    -0.359 N 
HETATM    6  H   UNL     1       0.612  -1.021  -0.974  1.00  0.00     0.161 HD
BRANCH   5   7
HETATM    7  C   UNL     1       2.706  -0.685  -1.072  1.00  0.00     0.143 C 
BRANCH   7   8
HETATM    8  B   UNL     1       3.304  -1.321   0.233  1.00  0.00     0.510 B 
BRANCH   8   9
HETATM    9  O   UNL     1       2.487  -1.483   1.383  1.00  0.00    -0.436 OA
HETATM   10  H   UNL     1       1.611  -1.144   1.154  1.00  0.00     0.184 HD
ENDBRANCH   8   9
BRANCH   8  11
HETATM   11  O   UNL     1       4.663  -1.733   0.264  1.00  0.00    -0.436 OA
HETATM   12  H   UNL     1       4.826  -2.092   1.146  1.00  0.00     0.184 HD
ENDBRANCH   8  11
ENDBRANCH   7   8
ENDBRANCH   5   7
ENDBRANCH   2   3
BRANCH   2  13
HETATM   13  C   UNL     1      -1.452   0.124  -0.053  1.00  0.00     0.102 A 
HETATM   14  C   UNL     1      -2.784   0.415   0.069  1.00  0.00     0.087 A 
HETATM   15  S   UNL     1      -3.483  -1.230   0.107  1.00  0.00    -0.062 SA
HETATM   16  C   UNL     1      -1.948  -2.132  -0.042  1.00  0.00     0.164 A 
HETATM   17  N   UNL     1      -1.068  -1.150  -0.111  1.00  0.00    -0.222 NA
BRANCH  16  18
HETATM   18  N   UNL     1      -1.737  -3.500  -0.082  1.00  0.00    -0.378 N 
HETATM   19  H   UNL     1      -2.490  -4.108  -0.024  1.00  0.00     0.158 HD
HETATM   20  H   UNL     1      -0.836  -3.850  -0.167  1.00  0.00     0.158 HD
ENDBRANCH  16  18
ENDBRANCH   2  13
BRANCH   1  21
HETATM   21  O   UNL     1       0.171   3.463   0.171  1.00  0.00    -0.261 OA
HETATM   22  C   UNL     1      -0.522   4.683   0.443  1.00  0.00     0.240 C 
ENDBRANCH   1  21
TORSDOF 8
