REMARK  7 active torsions:
REMARK  status: ('A' for Active; 'I' for Inactive)
REMARK    1  A    between atoms: C_2  and  CA_4 
REMARK    2  A    between atoms: CA_4  and  C_6 
REMARK    3  A    between atoms: CA_4  and  N_5 
REMARK       I    between atoms: N_5  and  C_12 
REMARK    4  A    between atoms: CA_9  and  C_11 
REMARK    5  A    between atoms: C_11  and  OXT_28 
REMARK    6  A    between atoms: C_12  and  C_14 
REMARK    7  A    between atoms: C_18  and  C_20 
ROOT
HETATM    1  N   UNL     1       0.079   1.082   0.398  1.00  0.00    -0.343 N 
HETATM    2  C   UNL     1      -1.091   1.355   1.009  1.00  0.00     0.257 C 
HETATM    3  O   UNL     1      -1.127   1.504   2.215  1.00  0.00    -0.267 OA
HETATM    4  H   UNL     1       0.107   0.963  -0.564  1.00  0.00     0.163 HD
ENDROOT
BRANCH   1   5
HETATM    5  CA  UNL     1       1.307   0.963   1.187  1.00  0.00     0.189 C 
BRANCH   5   6
HETATM    6  C   UNL     1       1.903   2.331   1.398  1.00  0.00     0.259 C 
HETATM    7  O   UNL     1       1.361   3.304   0.932  1.00  0.00    -0.305 OA
ENDBRANCH   5   6
BRANCH   5   8
HETATM    8  C   UNL     1       2.309   0.079   0.442  1.00  0.00     0.312 C 
HETATM    9  N   UNL     1       3.605   0.002   1.173  1.00  0.00     0.116 N 
HETATM   10  CA  UNL     1       4.685  -0.430   0.279  1.00  0.00     0.336 C 
HETATM   11  H   UNL     1       3.827   0.885   1.608  1.00  0.00     0.318 HD
HETATM   12  C   UNL     1       4.483   0.039  -1.174  1.00  0.00     0.044 C 
HETATM   13  S   UNL     1       2.843   0.867  -1.135  1.00  0.00    -0.119 SA
HETATM   14  C   UNL     1       4.459  -1.158  -2.128  1.00  0.00     0.029 C 
HETATM   15  C   UNL     1       5.577   1.029  -1.578  1.00  0.00     0.029 C 
BRANCH  10  16
HETATM   16  C   UNL     1       4.758  -1.935   0.299  1.00  0.00     0.175 C 
HETATM   17  O   UNL     1       3.788  -2.583   0.614  1.00  0.00    -0.648 OA
BRANCH  16  18
HETATM   18  OXT UNL     1       5.901  -2.556  -0.032  1.00  0.00    -0.775 OA
HETATM   19  HXT UNL     1       5.900  -3.522  -0.005  1.00  0.00     0.167 HD
ENDBRANCH  16  18
ENDBRANCH  10  16
ENDBRANCH   5   8
ENDBRANCH   1   5
BRANCH   2  20
HETATM   20  C   UNL     1      -2.326   1.475   0.215  1.00  0.00     0.095 A 
HETATM   21  C   UNL     1      -3.291   0.418  -0.153  1.00  0.00     0.114 A 
HETATM   22  N   UNL     1      -4.212   1.026  -0.856  1.00  0.00    -0.127 NA
HETATM   23  O   UNL     1      -3.984   2.205  -0.980  1.00  0.00    -0.217 OA
HETATM   24  C   UNL     1      -2.862   2.594  -0.370  1.00  0.00     0.093 A 
HETATM   25  C   UNL     1      -2.296   3.990  -0.331  1.00  0.00     0.080 C 
BRANCH  21  26
HETATM   26  C   UNL     1      -3.230  -1.021   0.200  1.00  0.00     0.018 A 
HETATM   27  C   UNL     1      -2.170  -1.511   0.960  1.00  0.00     0.015 A 
HETATM   28  C   UNL     1      -2.122  -2.850   1.291  1.00  0.00     0.001 A 
HETATM   29  C   UNL     1      -3.117  -3.708   0.860  1.00  0.00     0.002 A 
HETATM   30  C   UNL     1      -4.169  -3.230   0.100  1.00  0.00     0.025 A 
HETATM   31  C   UNL     1      -4.231  -1.891  -0.232  1.00  0.00     0.046 A 
HETATM   32 CL   UNL     1      -5.553  -1.292  -1.185  1.00  0.00    -0.083 Cl
ENDBRANCH  21  26
ENDBRANCH   2  20
TORSDOF 7
