REMARK  9 active torsions:
REMARK  status: ('A' for Active; 'I' for Inactive)
REMARK    1  A    between atoms: C_1  and  C_4 
REMARK       I    between atoms: C_1  and  N_20 
REMARK    2  A    between atoms: N_2  and  C_4 
REMARK       I    between atoms: N_2  and  C_21 
REMARK    3  A    between atoms: C_4  and  C_25 
REMARK    4  A    between atoms: O_9  and  C_24 
REMARK    5  A    between atoms: O_10  and  B_26 
REMARK    6  A    between atoms: O_11  and  B_26 
REMARK    7  A    between atoms: C_16  and  N_27 
REMARK    8  A    between atoms: C_17  and  N_20 
REMARK    9  A    between atoms: C_17  and  B_26 
REMARK       I    between atoms: C_21  and  N_28 
ROOT
HETATM    1  C   UNL     1       1.215   0.250  -0.997  1.00  0.00     0.211 C 
ENDROOT
BRANCH   1   2
HETATM    2  C   UNL     1       2.159   1.387  -0.701  1.00  0.00     0.244 C 
HETATM    3  O   UNL     1       1.767   2.358  -0.090  1.00  0.00    -0.271 OA
HETATM    4  N   UNL     1       3.439   1.326  -1.121  1.00  0.00    -0.362 N 
HETATM    5  H   UNL     1       3.751   0.551  -1.614  1.00  0.00     0.161 HD
BRANCH   4   6
HETATM    6  C   UNL     1       4.357   2.430  -0.834  1.00  0.00     0.143 C 
BRANCH   6   7
HETATM    7  B   UNL     1       5.165   2.113   0.474  1.00  0.00     0.510 B 
BRANCH   7   8
HETATM    8  O   UNL     1       6.480   2.622   0.638  1.00  0.00    -0.436 OA
HETATM    9  H   UNL     1       6.897   2.374   1.474  1.00  0.00     0.184 HD
ENDBRANCH   7   8
BRANCH   7  10
HETATM   10  O   UNL     1       4.580   1.316   1.494  1.00  0.00    -0.436 OA
HETATM   11  H   UNL     1       5.153   1.175   2.260  1.00  0.00     0.184 HD
ENDBRANCH   7  10
ENDBRANCH   6   7
ENDBRANCH   4   6
ENDBRANCH   1   2
BRANCH   1  12
HETATM   12  N   UNL     1      -0.105   0.555  -0.439  1.00  0.00    -0.325 N 
HETATM   13  C   UNL     1      -1.208  -0.011  -0.969  1.00  0.00     0.330 C 
HETATM   14  O   UNL     1      -1.107  -0.775  -1.909  1.00  0.00    -0.246 OA
HETATM   15  N   UNL     1      -2.422   0.269  -0.456  1.00  0.00    -0.235 N 
HETATM   16  C   UNL     1      -2.539   1.138   0.615  1.00  0.00     0.122 A 
HETATM   17  C   UNL     1      -3.528  -0.298  -0.985  1.00  0.00     0.324 A 
HETATM   18  C   UNL     1      -3.720   1.436   1.145  1.00  0.00     0.112 A 
HETATM   19  N   UNL     1      -4.891   0.890   0.658  1.00  0.00    -0.319 N 
HETATM   20  C   UNL     1      -4.852   0.033  -0.385  1.00  0.00     0.316 A 
HETATM   21  O   UNL     1      -5.873  -0.456  -0.826  1.00  0.00    -0.262 OA
HETATM   22  O   UNL     1      -3.445  -1.063  -1.925  1.00  0.00    -0.261 OA
HETATM   23  H   UNL     1      -0.186   1.164   0.311  1.00  0.00     0.165 HD
BRANCH  19  24
HETATM   24  C   UNL     1      -6.174   1.238   1.274  1.00  0.00     0.127 C 
HETATM   25  C   UNL     1      -6.483   0.252   2.402  1.00  0.00     0.027 C 
ENDBRANCH  19  24
ENDBRANCH   1  12
BRANCH   1  26
HETATM   26  C   UNL     1       1.743  -1.017  -0.374  1.00  0.00    -0.026 A 
HETATM   27  C   UNL     1       1.543  -1.259   0.972  1.00  0.00     0.012 A 
HETATM   28  C   UNL     1       2.016  -2.425   1.543  1.00  0.00     0.037 A 
HETATM   29  C   UNL     1       2.697  -3.350   0.765  1.00  0.00     0.065 A 
HETATM   30  C   UNL     1       2.901  -3.102  -0.585  1.00  0.00     0.037 A 
HETATM   31  C   UNL     1       2.416  -1.940  -1.153  1.00  0.00     0.012 A 
BRANCH  29  32
HETATM   32  O   UNL     1       3.165  -4.497   1.324  1.00  0.00    -0.361 OA
HETATM   33  H   UNL     1       4.063  -4.426   1.675  1.00  0.00     0.217 HD
ENDBRANCH  29  32
ENDBRANCH   1  26
TORSDOF 9
