REMARK  11 active torsions:
REMARK  status: ('A' for Active; 'I' for Inactive)
REMARK    1  A    between atoms: C_1  and  C_4 
REMARK       I    between atoms: C_1  and  N_22 
REMARK    2  A    between atoms: N_2  and  C_4 
REMARK       I    between atoms: N_2  and  C_23 
REMARK    3  A    between atoms: C_4  and  C_5 
REMARK    4  A    between atoms: C_5  and  C_18 
REMARK    5  A    between atoms: O_10  and  C_27 
REMARK    6  A    between atoms: O_11  and  B_26 
REMARK    7  A    between atoms: O_12  and  B_26 
REMARK    8  A    between atoms: C_17  and  N_29 
REMARK    9  A    between atoms: C_18  and  C_28 
REMARK   10  A    between atoms: C_19  and  N_22 
REMARK   11  A    between atoms: C_19  and  B_26 
REMARK       I    between atoms: C_23  and  N_30 
ROOT
HETATM    1  C   UNL     1       0.762   0.878  -0.824  1.00  0.00     0.178 C 
ENDROOT
BRANCH   1   2
HETATM    2  C   UNL     1       0.970   2.298  -0.363  1.00  0.00     0.239 C 
HETATM    3  O   UNL     1       0.173   2.813   0.393  1.00  0.00    -0.271 OA
HETATM    4  N   UNL     1       2.039   2.997  -0.793  1.00  0.00    -0.363 N 
HETATM    5  H   UNL     1       2.674   2.586  -1.401  1.00  0.00     0.161 HD
BRANCH   4   6
HETATM    6  C   UNL     1       2.242   4.376  -0.345  1.00  0.00     0.143 C 
BRANCH   6   7
HETATM    7  B   UNL     1       3.205   4.387   0.895  1.00  0.00     0.510 B 
BRANCH   7   8
HETATM    8  O   UNL     1       3.727   3.167   1.400  1.00  0.00    -0.436 OA
HETATM    9  H   UNL     1       4.310   3.274   2.164  1.00  0.00     0.184 HD
ENDBRANCH   7   8
BRANCH   7  10
HETATM   10  O   UNL     1       3.554   5.618   1.512  1.00  0.00    -0.436 OA
HETATM   11  H   UNL     1       4.151   5.524   2.267  1.00  0.00     0.184 HD
ENDBRANCH   7  10
ENDBRANCH   6   7
ENDBRANCH   4   6
ENDBRANCH   1   2
BRANCH   1  12
HETATM   12  N   UNL     1      -0.460   0.343  -0.220  1.00  0.00    -0.329 N 
HETATM   13  C   UNL     1      -1.655   0.570  -0.800  1.00  0.00     0.326 C 
HETATM   14  O   UNL     1      -1.730   1.294  -1.774  1.00  0.00    -0.247 OA
HETATM   15  N   UNL     1      -2.767  -0.005  -0.302  1.00  0.00    -0.260 N 
HETATM   16  C   UNL     1      -2.695  -0.780   0.937  1.00  0.00     0.157 C 
HETATM   17  C   UNL     1      -3.944   0.136  -0.945  1.00  0.00     0.319 C 
HETATM   18  C   UNL     1      -3.946  -0.557   1.782  1.00  0.00     0.146 C 
HETATM   19  N   UNL     1      -5.151  -0.780   0.983  1.00  0.00    -0.343 N 
HETATM   20  C   UNL     1      -5.189  -0.394  -0.308  1.00  0.00     0.312 C 
HETATM   21  O   UNL     1      -6.218  -0.477  -0.945  1.00  0.00    -0.262 OA
HETATM   22  O   UNL     1      -3.991   0.685  -2.026  1.00  0.00    -0.262 OA
HETATM   23  H   UNL     1      -0.410  -0.176   0.599  1.00  0.00     0.165 HD
BRANCH  19  24
HETATM   24  C   UNL     1      -6.320  -1.423   1.588  1.00  0.00     0.122 C 
HETATM   25  C   UNL     1      -6.223  -2.938   1.398  1.00  0.00     0.026 C 
ENDBRANCH  19  24
ENDBRANCH   1  12
BRANCH   1  26
HETATM   26  C   UNL     1       1.958   0.023  -0.400  1.00  0.00     0.039 C 
BRANCH  26  27
HETATM   27  C   UNL     1       1.806  -1.386  -0.975  1.00  0.00     0.041 C 
BRANCH  27  28
HETATM   28  C   UNL     1       2.984  -2.228  -0.557  1.00  0.00    -0.058 A 
HETATM   29  C   UNL     1       2.932  -2.952   0.620  1.00  0.00     0.010 A 
HETATM   30  C   UNL     1       4.010  -3.726   1.005  1.00  0.00     0.037 A 
HETATM   31  C   UNL     1       5.146  -3.775   0.210  1.00  0.00     0.065 A 
HETATM   32  C   UNL     1       5.195  -3.048  -0.971  1.00  0.00     0.037 A 
HETATM   33  C   UNL     1       4.115  -2.276  -1.351  1.00  0.00     0.010 A 
BRANCH  31  34
HETATM   34  O   UNL     1       6.208  -4.535   0.586  1.00  0.00    -0.361 OA
HETATM   35  H   UNL     1       6.178  -5.444   0.257  1.00  0.00     0.217 HD
ENDBRANCH  31  34
ENDBRANCH  27  28
ENDBRANCH  26  27
ENDBRANCH   1  26
TORSDOF 11
