REMARK  10 active torsions:
REMARK  status: ('A' for Active; 'I' for Inactive)
REMARK    1  A    between atoms: C_1  and  C_4 
REMARK       I    between atoms: C_1  and  N_19 
REMARK    2  A    between atoms: N_2  and  C_4 
REMARK       I    between atoms: N_2  and  C_20 
REMARK    3  A    between atoms: C_4  and  C_5 
REMARK    4  A    between atoms: C_5  and  C_6 
REMARK    5  A    between atoms: O_7  and  C_8 
REMARK    6  A    between atoms: O_13  and  B_23 
REMARK    7  A    between atoms: O_14  and  B_23 
REMARK    8  A    between atoms: C_15  and  N_24 
REMARK    9  A    between atoms: C_16  and  N_19 
REMARK   10  A    between atoms: C_16  and  B_23 
REMARK       I    between atoms: C_20  and  N_25 
ROOT
HETATM    1  C   UNL     1       1.672  -0.139  -0.445  1.00  0.00     0.182 C 
ENDROOT
BRANCH   1   2
HETATM    2  C   UNL     1       2.506   1.115  -0.398  1.00  0.00     0.240 C 
HETATM    3  O   UNL     1       2.028   2.146   0.025  1.00  0.00    -0.271 OA
HETATM    4  N   UNL     1       3.782   1.093  -0.833  1.00  0.00    -0.363 N 
HETATM    5  H   UNL     1       4.163   0.269  -1.175  1.00  0.00     0.161 HD
BRANCH   4   6
HETATM    6  C   UNL     1       4.593   2.312  -0.787  1.00  0.00     0.143 C 
BRANCH   6   7
HETATM    7  B   UNL     1       5.438   2.330   0.536  1.00  0.00     0.510 B 
BRANCH   7   8
HETATM    8  O   UNL     1       5.332   1.257   1.460  1.00  0.00    -0.436 OA
HETATM    9  H   UNL     1       5.890   1.356   2.243  1.00  0.00     0.184 HD
ENDBRANCH   7   8
BRANCH   7  10
HETATM   10  O   UNL     1       6.308   3.418   0.808  1.00  0.00    -0.436 OA
HETATM   11  H   UNL     1       6.785   3.340   1.645  1.00  0.00     0.184 HD
ENDBRANCH   7  10
ENDBRANCH   6   7
ENDBRANCH   4   6
ENDBRANCH   1   2
BRANCH   1  12
HETATM   12  N   UNL     1       0.334   0.145   0.078  1.00  0.00    -0.329 N 
HETATM   13  C   UNL     1      -0.614   0.651  -0.735  1.00  0.00     0.326 C 
HETATM   14  O   UNL     1      -0.335   0.956  -1.878  1.00  0.00    -0.247 OA
HETATM   15  N   UNL     1      -1.872   0.818  -0.281  1.00  0.00    -0.260 N 
HETATM   16  C   UNL     1      -2.181   0.561   1.126  1.00  0.00     0.157 C 
HETATM   17  C   UNL     1      -2.843   1.222  -1.124  1.00  0.00     0.319 C 
HETATM   18  C   UNL     1      -3.197   1.573   1.646  1.00  0.00     0.146 C 
HETATM   19  N   UNL     1      -4.360   1.634   0.760  1.00  0.00    -0.343 N 
HETATM   20  C   UNL     1      -4.201   1.533  -0.575  1.00  0.00     0.312 C 
HETATM   21  O   UNL     1      -5.144   1.691  -1.321  1.00  0.00    -0.262 OA
HETATM   22  O   UNL     1      -2.620   1.333  -2.311  1.00  0.00    -0.262 OA
HETATM   23  H   UNL     1       0.130  -0.032   1.010  1.00  0.00     0.165 HD
BRANCH  19  24
HETATM   24  C   UNL     1      -5.701   1.806   1.324  1.00  0.00     0.122 C 
HETATM   25  C   UNL     1      -6.312   0.433   1.613  1.00  0.00     0.026 C 
ENDBRANCH  19  24
ENDBRANCH   1  12
BRANCH   1  26
HETATM   26  C   UNL     1       2.334  -1.224   0.407  1.00  0.00     0.073 C 
BRANCH  26  27
HETATM   27  C   UNL     1       1.568  -2.513   0.263  1.00  0.00    -0.056 A 
HETATM   28  C   UNL     1       0.528  -2.799   1.129  1.00  0.00     0.010 A 
HETATM   29  C   UNL     1      -0.176  -3.981   0.998  1.00  0.00     0.037 A 
HETATM   30  C   UNL     1       0.161  -4.881  -0.002  1.00  0.00     0.065 A 
HETATM   31  C   UNL     1       1.208  -4.594  -0.866  1.00  0.00     0.037 A 
HETATM   32  C   UNL     1       1.909  -3.411  -0.732  1.00  0.00     0.010 A 
BRANCH  30  33
HETATM   33  O   UNL     1      -0.530  -6.043  -0.133  1.00  0.00    -0.361 OA
HETATM   34  H   UNL     1      -0.166  -6.777   0.381  1.00  0.00     0.217 HD
ENDBRANCH  30  33
ENDBRANCH  26  27
ENDBRANCH   1  26
TORSDOF 10
