REMARK  6 active torsions:
REMARK  status: ('A' for Active; 'I' for Inactive)
REMARK    1  A    between atoms: C_1  and  CA_4 
REMARK    2  A    between atoms: N_2  and  CA_4 
REMARK    3  A    between atoms: CA_4  and  C_17 
REMARK    4  A    between atoms: C_5  and  N_12 
REMARK    5  A    between atoms: CA_14  and  C_21 
REMARK    6  A    between atoms: C_21  and  O_22 
ROOT
HETATM    1  N   UNL     1      -1.558   0.420   0.371  1.00  0.00     0.116 N 
HETATM    2  CA  UNL     1      -2.939   0.389   0.864  1.00  0.00     0.336 C 
HETATM    3  C   UNL     1      -3.742  -0.807   0.319  1.00  0.00     0.044 C 
HETATM    4  S   UNL     1      -2.501  -1.750  -0.653  1.00  0.00    -0.119 SA
HETATM    5  C   UNL     1      -1.043  -0.960   0.146  1.00  0.00     0.315 C 
HETATM    6  H   UNL     1      -1.486   0.974  -0.469  1.00  0.00     0.318 HD
HETATM    7  C   UNL     1      -4.286  -1.659   1.469  1.00  0.00     0.029 C 
HETATM    8  C   UNL     1      -4.881  -0.326  -0.582  1.00  0.00     0.029 C 
ENDROOT
BRANCH   5   9
HETATM    9  CA  UNL     1       0.164  -0.951  -0.795  1.00  0.00     0.213 C 
BRANCH   9  10
HETATM   10  C   UNL     1      -0.148  -0.107  -2.004  1.00  0.00     0.261 C 
HETATM   11  O   UNL     1       0.526   0.863  -2.253  1.00  0.00    -0.304 OA
ENDBRANCH   9  10
BRANCH   9  12
HETATM   12  N   UNL     1       1.324  -0.393  -0.096  1.00  0.00    -0.270 NA
HETATM   13  C   UNL     1       2.391  -1.107   0.058  1.00  0.00     0.199 C 
BRANCH  13  14
HETATM   14  N   UNL     1       3.476  -0.585   0.712  1.00  0.00    -0.376 N 
HETATM   15  C   UNL     1       4.679  -1.426   0.870  1.00  0.00     0.123 C 
HETATM   16  C   UNL     1       5.976  -0.637   0.616  1.00  0.00     0.020 C 
HETATM   17  C   UNL     1       5.796   0.292  -0.560  1.00  0.00     0.002 C 
HETATM   18  C   UNL     1       5.324   1.655  -0.061  1.00  0.00     0.002 C 
HETATM   19  C   UNL     1       3.869   1.760   0.129  1.00  0.00     0.020 C 
HETATM   20  C   UNL     1       3.395   0.767   1.219  1.00  0.00     0.123 C 
ENDBRANCH  13  14
ENDBRANCH   9  12
ENDBRANCH   5   9
BRANCH   2  21
HETATM   21  C   UNL     1      -3.629   1.665   0.455  1.00  0.00     0.175 C 
HETATM   22  OXT UNL     1      -3.172   2.340  -0.437  1.00  0.00    -0.648 OA
BRANCH  21  23
HETATM   23  O   UNL     1      -4.752   2.051   1.081  1.00  0.00    -0.775 OA
HETATM   24  H   UNL     1      -5.159   2.876   0.784  1.00  0.00     0.167 HD
ENDBRANCH  21  23
ENDBRANCH   2  21
TORSDOF 6
