REMARK  4 active torsions:
REMARK  status: ('A' for Active; 'I' for Inactive)
REMARK    1  A    between atoms: C_2  and  C_3 
REMARK    2  A    between atoms: C_5  and  C_9 
REMARK    3  A    between atoms: C_8  and  C_11 
REMARK    4  A    between atoms: C_11  and  O_12 
ROOT
HETATM    1  C   UNK A   0      -1.498  -0.712  -1.211  1.00  0.00     0.100 C 
HETATM    2  C   UNK A   0      -1.137  -0.051  -0.123  1.00  0.00     0.015 C 
HETATM    3  C   UNK A   1       0.184   0.362   0.431  1.00  0.00     0.144 C 
HETATM    4  S   UNK A   1       1.553  -0.477  -0.392  1.00  0.00    -0.123 SA
HETATM    5  N   UNK A   1      -0.674  -1.086  -2.202  1.00  0.00    -0.359 N 
HETATM    6  C   UNK A   1       0.287  -0.226  -2.759  1.00  0.00     0.112 C 
HETATM    7  C   UNK A   1       1.350   0.104  -2.041  1.00  0.00     0.082 C 
HETATM    8  H   UNK A   1      -0.746  -1.989  -2.549  1.00  0.00     0.165 HD
ENDROOT
BRANCH   3   9
HETATM    9  C   UNK A   1       0.223   0.036   1.902  1.00  0.00     0.094 A 
HETATM   10  C   UNK A   1       0.540   0.881   2.911  1.00  0.00     0.144 A 
HETATM   11  N   UNK A   1       0.442   0.160   4.051  1.00  0.00    -0.265 N 
HETATM   12  N   UNK A   1       0.094  -1.039   3.742  1.00  0.00    -0.067 NA
HETATM   13  C   UNK A   1       0.694   0.658   5.406  1.00  0.00     0.181 C 
HETATM   14  N   UNK A   1      -0.050  -1.144   2.468  1.00  0.00    -0.134 NA
ENDBRANCH   3   9
BRANCH   2  15
HETATM   15  C   UNK A   0      -2.221   0.340   0.673  1.00  0.00     0.268 C 
HETATM   16  O   UNK A   0      -2.036   1.043   1.647  1.00  0.00    -0.302 OA
ENDBRANCH   2  15
BRANCH   6  17
HETATM   17  C   UNK A   1       0.122   0.279  -4.070  1.00  0.00     0.194 C 
HETATM   18  O   UNK A   1      -0.856  -0.029  -4.723  1.00  0.00    -0.645 OA
BRANCH  17  19
HETATM   19  O   UNK A   1       1.051   1.105  -4.597  1.00  0.00    -0.772 OA
HETATM   20  H   UNK A   1       0.751   1.331  -5.488  1.00  0.00     0.167 HD
ENDBRANCH  17  19
ENDBRANCH   6  17
TORSDOF 4
