REMARK  3 active torsions:
REMARK  status: ('A' for Active; 'I' for Inactive)
REMARK    1  A    between atoms: C_1  and  C_2 
REMARK    2  A    between atoms: C_1  and  C_4 
REMARK    3  A    between atoms: C_4  and  O_6 
ROOT
HETATM    1  C   UNL     1      -0.949  -0.029   0.012  1.00  0.00     0.145 C 
HETATM    2  O   UNL     1      -0.871  -1.234  -0.013  1.00  0.00    -0.650 OA
ENDROOT
BRANCH   1   3
HETATM    3  C   UNL     1       0.291   0.803   0.214  1.00  0.00     0.179 C 
BRANCH   3   4
HETATM    4  C   UNL     1       1.486  -0.104   0.358  1.00  0.00     0.241 C 
HETATM    5  O   UNL     1       2.441   0.037  -0.368  1.00  0.00    -0.306 OA
ENDBRANCH   3   4
ENDBRANCH   1   3
BRANCH   1   6
HETATM    6  O   UNL     1      -2.141   0.570  -0.140  1.00  0.00    -0.776 OA
HETATM    7  H   UNL     1      -2.908  -0.006  -0.267  1.00  0.00     0.167 HD
ENDBRANCH   1   6
TORSDOF 3
