REMARK  5 active torsions:
REMARK  status: ('A' for Active; 'I' for Inactive)
REMARK    1  A    between atoms: C_1  and  C_5 
REMARK    2  A    between atoms: C_1  and  N_14 
REMARK    3  A    between atoms: C_9  and  B_10 
REMARK    4  A    between atoms: B_10  and  O_12 
REMARK    5  A    between atoms: B_10  and  O_11 
ROOT
HETATM    1  C   UNL     1       2.714   1.204  -0.172  1.00  0.00     0.010 A 
HETATM    2  C   UNL     1       1.486   1.807  -0.047  1.00  0.00     0.020 A 
HETATM    3  C   UNL     1       0.320   1.033  -0.039  1.00  0.00     0.014 A 
HETATM    4  C   UNL     1       2.806  -0.178  -0.291  1.00  0.00    -0.030 A 
HETATM    5  C   UNL     1       1.688  -0.950  -0.287  1.00  0.00     0.021 A 
HETATM    6  C   UNL     1       0.407  -0.360  -0.159  1.00  0.00    -0.018 A 
HETATM    7  C   UNL     1      -0.851  -0.982  -0.134  1.00  0.00     0.021 A 
HETATM    8  C   UNL     1      -1.898  -0.163  -0.003  1.00  0.00     0.010 A 
HETATM    9  S   UNL     1      -1.369   1.507   0.103  1.00  0.00    -0.101 SA
ENDROOT
BRANCH   8  10
HETATM   10  B   UNL     1      -3.396  -0.630   0.050  1.00  0.00     0.536 B 
BRANCH  10  11
HETATM   11  O   UNL     1      -4.433   0.329   0.192  1.00  0.00    -0.433 OA
HETATM   12  H   UNL     1      -5.321  -0.054   0.215  1.00  0.00     0.185 HD
ENDBRANCH  10  11
BRANCH  10  13
HETATM   13  O   UNL     1      -3.713  -2.011  -0.044  1.00  0.00    -0.433 OA
HETATM   14  H   UNL     1      -4.660  -2.201  -0.002  1.00  0.00     0.185 HD
ENDBRANCH  10  13
ENDBRANCH   8  10
BRANCH   4  15
HETATM   15  C   UNL     1       4.160  -0.826  -0.428  1.00  0.00     0.305 C 
BRANCH  15  16
HETATM   16  N   UNL     1       4.684  -1.150   0.905  1.00  0.00     0.082 N 
HETATM   17  H   UNL     1       5.592  -1.586   0.840  1.00  0.00     0.313 HD
HETATM   18  H   UNL     1       4.719  -0.328   1.490  1.00  0.00     0.313 HD
ENDBRANCH  15  16
ENDBRANCH   4  15
TORSDOF 5
