REMARK  11 active torsions:
REMARK  status: ('A' for Active; 'I' for Inactive)
REMARK    1  A    between atoms: C_1  and  C_3 
REMARK    2  A    between atoms: C_2  and  S_14 
REMARK    3  A    between atoms: C_3  and  C_4 
REMARK    4  A    between atoms: C_3  and  C_7 
REMARK    5  A    between atoms: CA_5  and  C_11 
REMARK    6  A    between atoms: C_7  and  O_8 
REMARK    7  A    between atoms: C_11  and  OXT_13 
REMARK    8  A    between atoms: S_14  and  C_15 
REMARK    9  A    between atoms: C_15  and  C_16 
REMARK   10  A    between atoms: C_16  and  N_17 
REMARK   11  A    between atoms: N_17  and  C_18 
ROOT
HETATM    1  C   UNL     1      -0.053  -0.664  -0.853  1.00  0.00     0.013 A 
HETATM    2  C   UNL     1      -2.183   0.451  -1.056  1.00  0.00     0.100 A 
HETATM    3  CA  UNL     1      -0.987  -1.362  -0.180  1.00  0.00     0.116 A 
HETATM    4  N   UNL     1      -2.260  -0.774  -0.250  1.00  0.00    -0.378 N 
HETATM    5  C   UNL     1      -0.706   0.546  -1.481  1.00  0.00     0.074 A 
HETATM    6  H   UNL     1      -3.063  -1.120   0.170  1.00  0.00     0.160 HD
ENDROOT
BRANCH   1   7
HETATM    7  S   UNL     1       1.650  -1.094  -0.987  1.00  0.00    -0.130 SA
BRANCH   7   8
HETATM    8  C   UNL     1       2.396   0.292  -0.093  1.00  0.00     0.099 C 
BRANCH   8   9
HETATM    9  C   UNL     1       3.920   0.195  -0.182  1.00  0.00     0.131 C 
BRANCH   9  10
HETATM   10  N   UNL     1       4.524   1.317   0.542  1.00  0.00    -0.384 N 
HETATM   11  H   UNL     1       3.958   1.972   0.979  1.00  0.00     0.160 HD
BRANCH  10  12
HETATM   12  C   UNL     1       5.887   1.441   0.600  1.00  0.00     0.192 C 
HETATM   13  N   UNL     1       6.641   0.567   0.016  1.00  0.00    -0.296 NA
HETATM   14  H   UNL     1       7.606   0.654   0.058  1.00  0.00     0.187 HD
ENDBRANCH  10  12
ENDBRANCH   9  10
ENDBRANCH   8   9
ENDBRANCH   7   8
ENDBRANCH   1   7
BRANCH   3  15
HETATM   15  C   UNL     1      -0.715  -2.559   0.523  1.00  0.00     0.194 C 
HETATM   16  O   UNL     1       0.431  -2.960   0.621  1.00  0.00    -0.645 OA
BRANCH  15  17
HETATM   17  OXT UNL     1      -1.725  -3.257   1.084  1.00  0.00    -0.772 OA
HETATM   18  HXT UNL     1      -1.441  -4.060   1.542  1.00  0.00     0.167 HD
ENDBRANCH  15  17
ENDBRANCH   3  15
BRANCH   2  19
HETATM   19  C   UNL     1      -2.581   1.667  -0.218  1.00  0.00     0.098 C 
BRANCH  19  20
HETATM   20  C   UNL     1      -1.670   1.773   0.978  1.00  0.00     0.240 C 
HETATM   21  O   UNL     1      -0.992   2.760   1.135  1.00  0.00    -0.306 OA
ENDBRANCH  19  20
BRANCH  19  22
HETATM   22  C   UNL     1      -4.027   1.509   0.256  1.00  0.00     0.126 C 
HETATM   23  C   UNL     1      -4.953   1.401  -0.958  1.00  0.00     0.040 C 
BRANCH  22  24
HETATM   24  O   UNL     1      -4.142   0.325   1.049  1.00  0.00    -0.395 OA
HETATM   25  H   UNL     1      -5.034   0.161   1.383  1.00  0.00     0.210 HD
ENDBRANCH  22  24
ENDBRANCH  19  22
ENDBRANCH   2  19
TORSDOF 11
