REMARK  8 active torsions:
REMARK  status: ('A' for Active; 'I' for Inactive)
REMARK    1  A    between atoms: C_1  and  C_3 
REMARK    2  A    between atoms: C_3  and  C_4 
REMARK    3  A    between atoms: C_4  and  N_5 
REMARK    4  A    between atoms: N_5  and  C_6 
REMARK    5  A    between atoms: C_6  and  C_7 
REMARK    6  A    between atoms: C_7  and  C_9 
REMARK    7  A    between atoms: C_9  and  C_10 
REMARK    8  A    between atoms: C_10  and  O_11 
ROOT
HETATM    1  C   UNL     1       0.278  -0.847   0.000  1.00  0.00     0.197 C 
ENDROOT
BRANCH   1   2
HETATM    2  N   UNL     1      -0.906   0.016   0.000  1.00  0.00    -0.392 N 
HETATM    3  H   UNL     1      -0.803   0.980   0.000  1.00  0.00     0.159 HD
BRANCH   2   4
HETATM    4  C   UNL     1      -2.152  -0.537   0.000  1.00  0.00     0.086 C 
BRANCH   4   5
HETATM    5  C   UNL     1      -3.247   0.262   0.000  1.00  0.00     0.058 C 
BRANCH   5   6
HETATM    6  C   UNL     1      -4.529  -0.307   0.000  1.00  0.00     0.260 C 
HETATM    7  O   UNL     1      -5.511   0.409   0.000  1.00  0.00    -0.302 OA
ENDBRANCH   5   6
ENDBRANCH   4   5
ENDBRANCH   2   4
ENDBRANCH   1   2
BRANCH   1   8
HETATM    8  C   UNL     1       1.521   0.005   0.000  1.00  0.00     0.146 C 
HETATM    9  O   UNL     1       1.427   1.209   0.000  1.00  0.00    -0.296 OA
BRANCH   8  10
HETATM   10  C   UNL     1       2.880  -0.645   0.000  1.00  0.00     0.106 C 
BRANCH  10  11
HETATM   11  C   UNL     1       3.963   0.437   0.000  1.00  0.00     0.171 C 
BRANCH  11  12
HETATM   12  O   UNL     1       5.252  -0.180   0.000  1.00  0.00    -0.400 OA
HETATM   13  H   UNL     1       5.988   0.447   0.000  1.00  0.00     0.209 HD
ENDBRANCH  11  12
ENDBRANCH  10  11
ENDBRANCH   8  10
ENDBRANCH   1   8
TORSDOF 8
