REMARK  4 active torsions:
REMARK  status: ('A' for Active; 'I' for Inactive)
REMARK    1  A    between atoms: C_2  and  O_3 
REMARK       I    between atoms: C_2  and  N_8 
REMARK    2  A    between atoms: O_3  and  C_4 
REMARK    3  A    between atoms: N_8  and  C_9 
REMARK    4  A    between atoms: B_15  and  O_16 
ROOT
HETATM    1  C   UNL     1       0.422   1.232  -0.330  1.00  0.00     0.036 A 
HETATM    2  C   UNL     1       1.221   2.330  -0.031  1.00  0.00     0.030 A 
HETATM    3  C   UNL     1       2.570   2.163   0.221  1.00  0.00     0.011 A 
HETATM    4  C   UNL     1       3.133   0.904   0.177  1.00  0.00    -0.035 A 
HETATM    5  C   UNL     1       0.979  -0.038  -0.371  1.00  0.00     0.030 A 
HETATM    6  C   UNL     1       2.337  -0.201  -0.122  1.00  0.00    -0.022 A 
HETATM    7  B   UNL     1       3.273  -1.462  -0.087  1.00  0.00     0.532 B 
HETATM    8  O   UNL     1       4.580  -1.001   0.226  1.00  0.00    -0.419 OA
HETATM    9  C   UNL     1       4.539   0.414   0.399  1.00  0.00     0.184 A 
ENDROOT
BRANCH   1  10
HETATM   10  N   UNL     1      -0.943   1.407  -0.583  1.00  0.00    -0.303 N 
HETATM   11  C   UNL     1      -1.828   0.472  -0.185  1.00  0.00     0.365 C 
HETATM   12  O   UNL     1      -1.434  -0.562   0.319  1.00  0.00    -0.238 OA
HETATM   13  H   UNL     1      -1.253   2.202  -1.046  1.00  0.00     0.171 HD
BRANCH  11  14
HETATM   14  O   UNL     1      -3.149   0.685  -0.340  1.00  0.00    -0.294 OA
BRANCH  14  15
HETATM   15  C   UNL     1      -4.043  -0.363   0.117  1.00  0.00     0.061 C 
HETATM   16  C   UNL     1      -5.492   0.055  -0.140  1.00  0.00     0.046 C 
HETATM   17  C   UNL     1      -3.837  -0.592   1.616  1.00  0.00     0.046 C 
HETATM   18  C   UNL     1      -3.744  -1.657  -0.642  1.00  0.00     0.046 C 
ENDBRANCH  14  15
ENDBRANCH  11  14
ENDBRANCH   1  10
BRANCH   7  19
HETATM   19  O   UNL     1       2.886  -2.807  -0.324  1.00  0.00    -0.433 OA
HETATM   20  H   UNL     1       3.612  -3.443  -0.257  1.00  0.00     0.185 HD
ENDBRANCH   7  19
TORSDOF 4
