REMARK  6 active torsions:
REMARK  status: ('A' for Active; 'I' for Inactive)
REMARK    1  A    between atoms: C_4  and  B_7 
REMARK    2  A    between atoms: C_6  and  N_10 
REMARK    3  A    between atoms: B_7  and  O_9 
REMARK    4  A    between atoms: B_7  and  O_8 
REMARK       I    between atoms: N_10  and  C_11 
REMARK    5  A    between atoms: C_11  and  O_12 
REMARK    6  A    between atoms: O_12  and  C_13 
ROOT
HETATM    1  C   UNL     1      -0.626   1.496   0.359  1.00  0.00     0.029 A 
HETATM    2  C   UNL     1      -1.794   2.182   0.087  1.00  0.00     0.002 A 
HETATM    3  C   UNL     1      -2.980   1.495  -0.083  1.00  0.00     0.001 A 
HETATM    4  C   UNL     1      -3.001   0.105   0.021  1.00  0.00    -0.030 A 
HETATM    5  C   UNL     1      -1.824  -0.587   0.295  1.00  0.00     0.030 A 
HETATM    6  C   UNL     1      -0.637   0.109   0.458  1.00  0.00     0.036 A 
ENDROOT
BRANCH   6   7
HETATM    7  N   UNL     1       0.548  -0.582   0.734  1.00  0.00    -0.303 N 
HETATM    8  C   UNL     1       1.718  -0.141   0.231  1.00  0.00     0.365 C 
HETATM    9  O   UNL     1       1.758   0.902  -0.391  1.00  0.00    -0.238 OA
HETATM   10  H   UNL     1       0.528  -1.379   1.287  1.00  0.00     0.171 HD
BRANCH   8  11
HETATM   11  O   UNL     1       2.844  -0.857   0.417  1.00  0.00    -0.294 OA
BRANCH  11  12
HETATM   12  C   UNL     1       4.067  -0.321  -0.152  1.00  0.00     0.061 C 
HETATM   13  C   UNL     1       3.909  -0.191  -1.668  1.00  0.00     0.046 C 
HETATM   14  C   UNL     1       4.351   1.056   0.451  1.00  0.00     0.046 C 
HETATM   15  C   UNL     1       5.231  -1.264   0.160  1.00  0.00     0.046 C 
ENDBRANCH  11  12
ENDBRANCH   8  11
ENDBRANCH   6   7
BRANCH   4  16
HETATM   16  B   UNL     1      -4.349  -0.678  -0.171  1.00  0.00     0.529 B 
BRANCH  16  17
HETATM   17  O   UNL     1      -4.369  -2.093  -0.065  1.00  0.00    -0.433 OA
HETATM   18  H   UNL     1      -5.242  -2.486  -0.199  1.00  0.00     0.185 HD
ENDBRANCH  16  17
BRANCH  16  19
HETATM   19  O   UNL     1      -5.548   0.030  -0.451  1.00  0.00    -0.433 OA
HETATM   20  H   UNL     1      -6.324  -0.536  -0.552  1.00  0.00     0.185 HD
ENDBRANCH  16  19
ENDBRANCH   4  16
TORSDOF 6
