REMARK  5 active torsions:
REMARK  status: ('A' for Active; 'I' for Inactive)
REMARK    1  A    between atoms: C_1  and  S_10 
REMARK    2  A    between atoms: C_4  and  B_7 
REMARK    3  A    between atoms: B_7  and  O_9 
REMARK    4  A    between atoms: B_7  and  O_8 
REMARK    5  A    between atoms: S_10  and  N_11 
ROOT
HETATM    1  C   UNL     1      -0.150  -0.576   0.003  1.00  0.00     0.079 A 
HETATM    2  C   UNL     1       0.524  -0.421   1.202  1.00  0.00     0.025 A 
HETATM    3  C   UNL     1       1.872  -0.128   1.206  1.00  0.00     0.002 A 
HETATM    4  C   UNL     1       2.556   0.011   0.000  1.00  0.00    -0.032 A 
HETATM    5  C   UNL     1       1.873  -0.146  -1.205  1.00  0.00     0.002 A 
HETATM    6  C   UNL     1       0.525  -0.438  -1.197  1.00  0.00     0.025 A 
ENDROOT
BRANCH   1   7
HETATM    7  S   UNL     1      -1.870  -0.956   0.005  1.00  0.00     0.260 S 
HETATM    8  O   UNL     1      -2.144  -1.581  -1.242  1.00  0.00    -0.200 OA
HETATM    9  O   UNL     1      -2.144  -1.569   1.258  1.00  0.00    -0.200 OA
BRANCH   7  10
HETATM   10  N   UNL     1      -2.690   0.482  -0.002  1.00  0.00    -0.307 N 
HETATM   11  C   UNL     1      -3.197   1.389   1.047  1.00  0.00     0.137 C 
HETATM   12  C   UNL     1      -3.103   2.499  -0.015  1.00  0.00     0.041 C 
HETATM   13  C   UNL     1      -3.203   1.376  -1.059  1.00  0.00     0.137 C 
ENDBRANCH   7  10
ENDBRANCH   1   7
BRANCH   4  14
HETATM   14  B   UNL     1       4.090   0.345  -0.002  1.00  0.00     0.529 B 
BRANCH  14  15
HETATM   15  O   UNL     1       4.785   0.486  -1.232  1.00  0.00    -0.433 OA
HETATM   16  H   UNL     1       5.724   0.692  -1.132  1.00  0.00     0.185 HD
ENDBRANCH  14  15
BRANCH  14  17
HETATM   17  O   UNL     1       4.783   0.505   1.227  1.00  0.00    -0.433 OA
HETATM   18  H   UNL     1       5.723   0.709   1.125  1.00  0.00     0.185 HD
ENDBRANCH  14  17
ENDBRANCH   4  14
TORSDOF 5
