REMARK  10 active torsions:
REMARK  status: ('A' for Active; 'I' for Inactive)
REMARK    1  A    between atoms: O_1  and  C_2 
REMARK    2  A    between atoms: C_2  and  C_4 
REMARK    3  A    between atoms: C_6  and  C_10 
REMARK    4  A    between atoms: N_12  and  C_15 
REMARK    5  A    between atoms: C_15  and  B_16 
REMARK    6  A    between atoms: B_16  and  O_18 
REMARK    7  A    between atoms: B_16  and  O_17 
REMARK    8  A    between atoms: O_17  and  P_19 
REMARK    9  A    between atoms: P_19  and  O_22 
REMARK   10  A    between atoms: P_19  and  O_20 
ROOT
HETATM    1  C   UNL     1      -1.372   0.452   0.668  1.00  0.00     0.108 A 
HETATM    2  C   UNL     1      -0.231  -0.027   1.244  1.00  0.00     0.147 A 
HETATM    3  N   UNL     1       0.677   0.971   1.159  1.00  0.00    -0.264 N 
HETATM    4  N   UNL     1       0.126   1.976   0.576  1.00  0.00    -0.067 NA
HETATM    5  N   UNL     1      -1.091   1.704   0.264  1.00  0.00    -0.130 NA
ENDROOT
BRANCH   3   6
HETATM    6  C   UNL     1       2.057   0.916   1.648  1.00  0.00     0.173 C 
BRANCH   6   7
HETATM    7  B   UNL     1       2.995   0.379   0.510  1.00  0.00     0.522 B 
BRANCH   7   8
HETATM    8  O   UNL     1       2.451   0.036  -0.756  1.00  0.00    -0.436 OA
HETATM    9  H   UNL     1       3.106  -0.285  -1.392  1.00  0.00     0.184 HD
ENDBRANCH   7   8
BRANCH   7  10
HETATM   10  O   UNL     1       4.388   0.236   0.746  1.00  0.00    -0.334 OA
BRANCH  10  11
HETATM   11  P   UNL     1       5.213  -0.325  -0.518  1.00  0.00     0.375 P 
HETATM   12  O   UNL     1       5.056   0.603  -1.660  1.00  0.00    -0.632 OA
BRANCH  11  13
HETATM   13  O   UNL     1       6.771  -0.444  -0.132  1.00  0.00    -0.308 OA
HETATM   14  H   UNL     1       7.330  -0.777  -0.848  1.00  0.00     0.222 HD
ENDBRANCH  11  13
BRANCH  11  15
HETATM   15  O   UNL     1       4.648  -1.777  -0.924  1.00  0.00    -0.308 OA
HETATM   16  H   UNL     1       4.719  -2.438  -0.222  1.00  0.00     0.222 HD
ENDBRANCH  11  15
ENDBRANCH  10  11
ENDBRANCH   7  10
ENDBRANCH   6   7
ENDBRANCH   3   6
BRANCH   1  17
HETATM   17  C   UNL     1      -2.662  -0.267   0.514  1.00  0.00    -0.003 A 
HETATM   18  C   UNL     1      -3.740   0.362  -0.100  1.00  0.00     0.032 A 
HETATM   19  C   UNL     1      -4.949  -0.319  -0.242  1.00  0.00     0.038 A 
HETATM   20  C   UNL     1      -5.070  -1.625   0.238  1.00  0.00     0.018 A 
HETATM   21  C   UNL     1      -3.993  -2.244   0.840  1.00  0.00     0.002 A 
HETATM   22  C   UNL     1      -2.794  -1.573   0.983  1.00  0.00     0.014 A 
BRANCH  19  23
HETATM   23  C   UNL     1      -6.099   0.341  -0.892  1.00  0.00     0.176 C 
HETATM   24  O   UNL     1      -5.992   1.477  -1.309  1.00  0.00    -0.646 OA
BRANCH  23  25
HETATM   25  O   UNL     1      -7.267  -0.317  -1.023  1.00  0.00    -0.773 OA
HETATM   26  H   UNL     1      -7.991   0.157  -1.456  1.00  0.00     0.167 HD
ENDBRANCH  23  25
ENDBRANCH  19  23
ENDBRANCH   1  17
TORSDOF 10
