REMARK  9 active torsions:
REMARK  status: ('A' for Active; 'I' for Inactive)
REMARK    1  A    between atoms: N_1  and  C_2 
REMARK    2  A    between atoms: C_2  and  C_3 
REMARK    3  A    between atoms: C_2  and  C_8 
REMARK    4  A    between atoms: C_3  and  C_4 
REMARK    5  A    between atoms: C_4  and  C_5 
REMARK    6  A    between atoms: C_5  and  C_6 
REMARK    7  A    between atoms: C_6  and  N_7 
REMARK       I    between atoms: N_7  and  C_10 
REMARK    8  A    between atoms: C_8  and  O_11 
REMARK    9  A    between atoms: C_10  and  O_13 
ROOT
HETATM    1  C   UNK     1       1.664  -0.335  -0.154  1.00  0.00     0.046 C 
ENDROOT
BRANCH   1   2
HETATM    2  C   UNK     1       2.869   0.442   0.381  1.00  0.00     0.314 C 
BRANCH   2   3
HETATM    3  N   UNK     1       2.900   1.778  -0.231  1.00  0.00     0.093 N 
HETATM    4  H   UNK     1       2.976   1.714  -1.235  1.00  0.00     0.314 HD
HETATM    5  H   UNK     1       2.091   2.317   0.037  1.00  0.00     0.314 HD
ENDBRANCH   2   3
BRANCH   2   6
HETATM    6  C   UNK     1       4.136  -0.298   0.038  1.00  0.00     0.173 C 
HETATM    7  O   UNK     1       4.803   0.052  -0.907  1.00  0.00    -0.648 OA
BRANCH   6   8
HETATM    8  O   UNK     1       4.524  -1.345   0.782  1.00  0.00    -0.775 OA
HETATM    9  H   UNK     1       5.344  -1.788   0.524  1.00  0.00     0.167 HD
ENDBRANCH   6   8
ENDBRANCH   2   6
ENDBRANCH   1   2
BRANCH   1  10
HETATM   10  C   UNK     1       0.373   0.349   0.301  1.00  0.00     0.004 C 
BRANCH  10  11
HETATM   11  C   UNK     1      -0.831  -0.428  -0.233  1.00  0.00     0.020 C 
BRANCH  11  12
HETATM   12  C   UNK     1      -2.122   0.256   0.221  1.00  0.00     0.125 C 
BRANCH  12  13
HETATM   13  N   UNK     1      -3.276  -0.489  -0.290  1.00  0.00    -0.338 N 
HETATM   14  C   UNK     1      -4.526  -0.068  -0.014  1.00  0.00     0.249 C 
HETATM   15  O   UNK     1      -4.696   0.929   0.660  1.00  0.00    -0.632 OA
HETATM   16  H   UNK     1      -3.140  -1.284  -0.828  1.00  0.00     0.165 HD
BRANCH  14  17
HETATM   17  O   UNK     1      -5.586  -0.752  -0.484  1.00  0.00    -0.760 OA
HETATM   18  H   UNK     1      -6.463  -0.412  -0.259  1.00  0.00     0.169 HD
ENDBRANCH  14  17
ENDBRANCH  12  13
ENDBRANCH  11  12
ENDBRANCH  10  11
ENDBRANCH   1  10
TORSDOF 9
