REMARK  7 active torsions:
REMARK  status: ('A' for Active; 'I' for Inactive)
REMARK    1  A    between atoms: B_1  and  O_18 
REMARK    2  A    between atoms: B_1  and  O_19 
REMARK    3  A    between atoms: C_2  and  S_23 
REMARK    4  A    between atoms: C_3  and  C_4 
REMARK    5  A    between atoms: C_3  and  S_23 
REMARK    6  A    between atoms: C_13  and  C_14 
REMARK    7  A    between atoms: C_14  and  O_20 
ROOT
HETATM    1  B   UNL     1      -0.800  -1.114   0.495  1.00  0.00     0.625 B 
HETATM    2  C   UNL     1       0.171  -0.022  -0.161  1.00  0.00     0.117 C 
HETATM    3  C   UNL     1      -0.348   1.363   0.243  1.00  0.00     0.056 C 
HETATM    4  C   UNL     1      -1.847   1.397   0.069  1.00  0.00    -0.025 A 
HETATM    5  C   UNL     1      -2.587   0.239  -0.071  1.00  0.00     0.078 A 
HETATM    6  C   UNL     1      -3.984   0.329  -0.223  1.00  0.00     0.070 A 
HETATM    7  C   UNL     1      -4.606   1.578  -0.235  1.00  0.00     0.021 A 
HETATM    8  C   UNL     1      -3.850   2.721  -0.097  1.00  0.00     0.002 A 
HETATM    9  C   UNL     1      -2.478   2.630   0.054  1.00  0.00     0.010 A 
HETATM   10  O   UNL     1      -2.032  -0.995  -0.075  1.00  0.00    -0.358 OA
ENDROOT
BRANCH   2  11
HETATM   11  S   UNL     1       1.861  -0.250   0.458  1.00  0.00    -0.160 SA
BRANCH  11  12
HETATM   12  C   UNL     1       2.877   0.511  -0.837  1.00  0.00     0.112 C 
BRANCH  12  13
HETATM   13  C   UNL     1       4.335   0.292  -0.526  1.00  0.00    -0.049 A 
HETATM   14  C   UNL     1       4.982  -0.832  -1.002  1.00  0.00     0.008 A 
HETATM   15  C   UNL     1       6.319  -1.034  -0.716  1.00  0.00     0.001 A 
HETATM   16  C   UNL     1       7.010  -0.110   0.047  1.00  0.00     0.000 A 
HETATM   17  C   UNL     1       6.363   1.015   0.523  1.00  0.00     0.001 A 
HETATM   18  C   UNL     1       5.027   1.219   0.232  1.00  0.00     0.008 A 
ENDBRANCH  12  13
ENDBRANCH  11  12
ENDBRANCH   2  11
BRANCH   1  19
HETATM   19  O   UNL     1      -0.307  -2.368   0.266  1.00  0.00    -0.409 OA
HETATM   20  H   UNL     1      -0.856  -3.078   0.626  1.00  0.00     0.188 HD
ENDBRANCH   1  19
BRANCH   1  21
HETATM   21  O   UNL     1      -0.894  -0.896   1.841  1.00  0.00    -0.409 OA
HETATM   22  H   UNL     1      -1.479  -1.514   2.300  1.00  0.00     0.188 HD
ENDBRANCH   1  21
BRANCH   6  23
HETATM   23  C   UNL     1      -4.790  -0.896  -0.369  1.00  0.00     0.178 C 
HETATM   24  O   UNL     1      -4.249  -1.984  -0.359  1.00  0.00    -0.646 OA
BRANCH  23  25
HETATM   25  O   UNL     1      -6.127  -0.810  -0.515  1.00  0.00    -0.773 OA
HETATM   26  H   UNL     1      -6.613  -1.641  -0.607  1.00  0.00     0.167 HD
ENDBRANCH  23  25
ENDBRANCH   6  23
TORSDOF 7
