REMARK  6 active torsions:
REMARK  status: ('A' for Active; 'I' for Inactive)
REMARK    1  A    between atoms: C_2  and  O_3 
REMARK    2  A    between atoms: C_2  and  C_4 
REMARK    3  A    between atoms: C_5  and  C_6 
REMARK    4  A    between atoms: C_10  and  B_11 
REMARK    5  A    between atoms: B_11  and  O_13 
REMARK    6  A    between atoms: B_11  and  O_12 
ROOT
HETATM    1  C   UNL     1      -0.236   0.251   0.001  1.00  0.00    -0.036 A 
HETATM    2  C   UNL     1      -0.168   1.649   0.002  1.00  0.00     0.011 A 
HETATM    3  C   UNL     1       1.059   2.282   0.001  1.00  0.00     0.001 A 
HETATM    4  C   UNL     1       2.225   1.541   0.000  1.00  0.00     0.001 A 
HETATM    5  C   UNL     1       2.172   0.147   0.000  1.00  0.00    -0.032 A 
HETATM    6  C   UNL     1       0.941  -0.500   0.006  1.00  0.00     0.012 A 
ENDROOT
BRANCH   1   7
HETATM    7  C   UNL     1      -1.543  -0.425   0.002  1.00  0.00     0.018 C 
HETATM    8  C   UNL     1      -2.679   0.303  -0.003  1.00  0.00     0.082 C 
BRANCH   8   9
HETATM    9  C   UNL     1      -3.978  -0.368  -0.003  1.00  0.00     0.165 C 
HETATM   10  O   UNL     1      -4.035  -1.583   0.002  1.00  0.00    -0.647 OA
BRANCH   9  11
HETATM   11  O   UNL     1      -5.114   0.360  -0.002  1.00  0.00    -0.773 OA
HETATM   12  H   UNL     1      -5.922  -0.171   0.002  1.00  0.00     0.167 HD
ENDBRANCH   9  11
ENDBRANCH   8   9
ENDBRANCH   1   7
BRANCH   5  13
HETATM   13  B   UNL     1       3.500  -0.690  -0.001  1.00  0.00     0.529 B 
BRANCH  13  14
HETATM   14  O   UNL     1       3.445  -2.109  -0.001  1.00  0.00    -0.433 OA
HETATM   15  H   UNL     1       4.313  -2.536  -0.002  1.00  0.00     0.185 HD
ENDBRANCH  13  14
BRANCH  13  16
HETATM   16  O   UNL     1       4.756  -0.028  -0.002  1.00  0.00    -0.433 OA
HETATM   17  H   UNL     1       5.516  -0.627  -0.003  1.00  0.00     0.185 HD
ENDBRANCH  13  16
ENDBRANCH   5  13
TORSDOF 6
