REMARK  9 active torsions:
REMARK  status: ('A' for Active; 'I' for Inactive)
REMARK    1  A    between atoms: C_1  and  C_8 
REMARK    2  A    between atoms: C_1  and  CA_6 
REMARK    3  A    between atoms: C_2  and  O_14 
REMARK    4  A    between atoms: C_2  and  C_8 
REMARK    5  A    between atoms: C_3  and  C_4 
REMARK    6  A    between atoms: C_4  and  C_5 
REMARK    7  A    between atoms: CA_6  and  N_9 
REMARK    8  A    between atoms: CA_6  and  C_7 
REMARK    9  A    between atoms: C_7  and  OXT_11 
ROOT
HETATM    1  CA  UNL     1      -0.186  -0.640   0.334  1.00  0.00     0.274 C 
ENDROOT
BRANCH   1   2
HETATM    2  C   UNL     1      -1.168   0.346  -0.243  1.00  0.00     0.163 C 
HETATM    3  O   UNL     1      -0.955   0.850  -1.320  1.00  0.00    -0.295 OA
BRANCH   2   4
HETATM    4  C   UNL     1      -2.412   0.709   0.526  1.00  0.00     0.107 C 
BRANCH   4   5
HETATM    5  C   UNL     1      -3.230   1.722  -0.277  1.00  0.00     0.171 C 
BRANCH   5   6
HETATM    6  O   UNL     1      -4.410   2.066   0.452  1.00  0.00    -0.400 OA
HETATM    7  H   UNL     1      -4.979   2.705   0.002  1.00  0.00     0.209 HD
ENDBRANCH   5   6
ENDBRANCH   4   5
ENDBRANCH   2   4
ENDBRANCH   1   2
BRANCH   1   8
HETATM    8  N   UNL     1       1.114  -0.476  -0.321  1.00  0.00    -0.282 NA
HETATM    9  C   UNL     1       2.145  -0.168   0.371  1.00  0.00     0.091 C 
BRANCH   9  10
HETATM   10  C   UNL     1       3.483   0.001  -0.303  1.00  0.00     0.115 C 
BRANCH  10  11
HETATM   11  C   UNL     1       4.043   1.360   0.026  1.00  0.00     0.236 C 
HETATM   12  O   UNL     1       5.142   1.457   0.517  1.00  0.00    -0.307 OA
ENDBRANCH  10  11
ENDBRANCH   9  10
ENDBRANCH   1   8
BRANCH   1  13
HETATM   13  C   UNL     1      -0.689  -2.042   0.107  1.00  0.00     0.173 C 
HETATM   14  O   UNL     1      -0.030  -2.824  -0.537  1.00  0.00    -0.648 OA
BRANCH  13  15
HETATM   15  OXT UNL     1      -1.870  -2.422   0.619  1.00  0.00    -0.775 OA
HETATM   16  HXT UNL     1      -2.151  -3.331   0.446  1.00  0.00     0.167 HD
ENDBRANCH  13  15
ENDBRANCH   1  13
TORSDOF 9
