REMARK  9 active torsions:
REMARK  status: ('A' for Active; 'I' for Inactive)
REMARK    1  A    between atoms: C_2  and  C_3 
REMARK    2  A    between atoms: C_3  and  C_4 
REMARK    3  A    between atoms: C_4  and  O_5 
REMARK    4  A    between atoms: O_5  and  C_6 
REMARK    5  A    between atoms: CA_12  and  C_13 
REMARK    6  A    between atoms: C_13  and  OXT_15 
REMARK    7  A    between atoms: C_17  and  C_18 
REMARK    8  A    between atoms: C_18  and  C_21 
REMARK    9  A    between atoms: C_18  and  C_19 
ROOT
HETATM    1  C   UNL     1       1.276   0.010   0.811  1.00  0.00     0.153 C 
HETATM    2  C   UNL     1       0.903  -1.123   1.782  1.00  0.00     0.036 C 
HETATM    3  C   UNL     1       0.211  -2.257   1.030  1.00  0.00     0.004 C 
HETATM    4  C   UNL     1      -1.113  -1.791   0.415  1.00  0.00     0.011 C 
HETATM    5  C   UNL     1      -0.805  -0.733  -0.647  1.00  0.00     0.043 C 
HETATM    6  C   UNL     1       0.019   0.346   0.041  1.00  0.00    -0.012 C 
HETATM    7  CA  UNL     1      -0.561   1.514  -0.150  1.00  0.00     0.108 C 
HETATM    8  N   UNL     1      -1.773   1.421  -0.834  1.00  0.00    -0.378 N 
HETATM    9  C   UNL     1      -2.066   0.004  -1.109  1.00  0.00     0.101 C 
HETATM   10  H   UNL     1      -2.335   2.171  -1.087  1.00  0.00     0.160 HD
ENDROOT
BRANCH   1  11
HETATM   11  O   UNL     1       2.297  -0.431  -0.086  1.00  0.00    -0.381 OA
BRANCH  11  12
HETATM   12  C   UNL     1       3.626  -0.195   0.384  1.00  0.00     0.168 C 
BRANCH  12  13
HETATM   13  C   UNL     1       4.631  -0.704  -0.651  1.00  0.00     0.026 C 
BRANCH  13  14
HETATM   14  C   UNL     1       6.053  -0.451  -0.148  1.00  0.00    -0.002 C 
HETATM   15  C   UNL     1       7.059  -0.960  -1.183  1.00  0.00     0.005 C 
ENDBRANCH  13  14
ENDBRANCH  12  13
ENDBRANCH  11  12
ENDBRANCH   1  11
BRANCH   7  16
HETATM   16  C   UNL     1       0.015   2.791   0.311  1.00  0.00     0.193 C 
HETATM   17  O   UNL     1       1.077   2.801   0.901  1.00  0.00    -0.645 OA
BRANCH  16  18
HETATM   18  OXT UNL     1      -0.637   3.947   0.078  1.00  0.00    -0.772 OA
HETATM   19  HXT UNL     1      -0.221   4.759   0.400  1.00  0.00     0.167 HD
ENDBRANCH  16  18
ENDBRANCH   7  16
BRANCH   9  20
HETATM   20  C   UNL     1      -3.282  -0.458  -0.305  1.00  0.00     0.070 C 
BRANCH  20  21
HETATM   21  C   UNL     1      -3.583  -1.898  -0.631  1.00  0.00     0.237 C 
HETATM   22  O   UNL     1      -3.683  -2.711   0.257  1.00  0.00    -0.306 OA
ENDBRANCH  20  21
BRANCH  20  23
HETATM   23  C   UNL     1      -4.491   0.409  -0.664  1.00  0.00     0.009 C 
HETATM   24  C   UNL     1      -5.674   0.030   0.229  1.00  0.00     0.006 C 
ENDBRANCH  20  23
ENDBRANCH   9  20
TORSDOF 9
