REMARK  5 active torsions:
REMARK  status: ('A' for Active; 'I' for Inactive)
REMARK    1  A    between atoms: C_3  and  C_4 
REMARK    2  A    between atoms: C_3  and  C_6 
REMARK    3  A    between atoms: CA_8  and  C_9 
REMARK    4  A    between atoms: C_9  and  OXT_11 
REMARK    5  A    between atoms: C_17  and  O_18 
ROOT
HETATM    1  C   UNL     1      -1.581  -0.212  -0.882  1.00  0.00     0.126 C 
HETATM    2  N   UNL     1      -0.838  -1.473  -0.720  1.00  0.00    -0.375 N 
HETATM    3  CA  UNL     1       0.473  -1.187  -0.341  1.00  0.00     0.108 C 
HETATM    4  C   UNL     1       0.720   0.105  -0.259  1.00  0.00    -0.012 C 
HETATM    5  C   UNL     1      -0.515   0.874  -0.707  1.00  0.00     0.047 C 
HETATM    6  C   UNL     1      -0.860   1.844   0.424  1.00  0.00     0.011 C 
HETATM    7  C   UNL     1       0.378   2.695   0.725  1.00  0.00     0.004 C 
HETATM    8  C   UNL     1       1.520   1.839   1.266  1.00  0.00     0.036 C 
HETATM    9  C   UNL     1       1.969   0.819   0.206  1.00  0.00     0.152 C 
HETATM   10  H   UNL     1      -1.203  -2.362  -0.856  1.00  0.00     0.160 HD
ENDROOT
BRANCH   1  11
HETATM   11  C   UNL     1      -2.643  -0.085   0.179  1.00  0.00    -0.001 C 
HETATM   12  C   UNL     1      -3.861   0.354  -0.145  1.00  0.00    -0.019 C 
HETATM   13  C   UNL     1      -4.174   0.723  -1.573  1.00  0.00     0.036 C 
BRANCH  11  14
HETATM   14  C   UNL     1      -2.340  -0.443   1.564  1.00  0.00     0.267 C 
HETATM   15  O   UNL     1      -1.232  -0.842   1.859  1.00  0.00    -0.302 OA
ENDBRANCH  11  14
ENDBRANCH   1  11
BRANCH   3  16
HETATM   16  C   UNL     1       1.482  -2.226  -0.059  1.00  0.00     0.193 C 
HETATM   17  O   UNL     1       2.608  -1.906   0.267  1.00  0.00    -0.645 OA
BRANCH  16  18
HETATM   18  OXT UNL     1       1.154  -3.529  -0.163  1.00  0.00    -0.772 OA
HETATM   19  HXT UNL     1       1.849  -4.173   0.031  1.00  0.00     0.167 HD
ENDBRANCH  16  18
ENDBRANCH   3  16
BRANCH   9  20
HETATM   20  O   UNL     1       2.585   1.494  -0.893  1.00  0.00    -0.386 OA
HETATM   21  C   UNL     1       4.005   1.609  -0.782  1.00  0.00     0.202 C 
ENDBRANCH   9  20
TORSDOF 5
