REMARK  15 active torsions:
REMARK  status: ('A' for Active; 'I' for Inactive)
REMARK    1  A    between atoms: C_2  and  C_3 
REMARK    2  A    between atoms: C_11  and  N_12 
REMARK    3  A    between atoms: N_12  and  CA_13 
REMARK    4  A    between atoms: CA_13  and  C_14 
REMARK    5  A    between atoms: CA_13  and  C_17 
REMARK    6  A    between atoms: C_14  and  O_15 
REMARK    7  A    between atoms: C_17  and  S_18 
REMARK    8  A    between atoms: C_17  and  C_22 
REMARK    9  A    between atoms: S_18  and  O_19 
REMARK   10  A    between atoms: C_22  and  O_23 
REMARK   11  A    between atoms: O_23  and  C_24 
REMARK   12  A    between atoms: C_24  and  C_26 
REMARK   13  A    between atoms: C_26  and  C_27 
REMARK   14  A    between atoms: C_31  and  O_32 
REMARK   15  A    between atoms: C_33  and  O_34 
ROOT
HETATM    1  C   UNL     1      -0.660   1.076  -0.407  1.00  0.00     0.107 C 
HETATM    2  C   UNL     1      -0.680   1.993  -1.632  1.00  0.00     0.036 C 
ENDROOT
BRANCH   1   3
HETATM    3  CA  UNL     1      -1.839   0.104  -0.478  1.00  0.00     0.184 C 
BRANCH   3   4
HETATM    4  N   UNL     1      -3.090   0.862  -0.621  1.00  0.00    -0.262 NA
HETATM    5  H   UNL     1      -3.227   1.156  -1.577  1.00  0.00     0.130 HD
BRANCH   4   6
HETATM    6  C   UNL     1      -4.169   0.126  -0.169  1.00  0.00     0.101 A 
HETATM    7  C   UNL     1      -5.471   0.601  -0.003  1.00  0.00     0.043 A 
HETATM    8  C   UNL     1      -6.252  -0.486   0.472  1.00  0.00     0.048 A 
HETATM    9  C   UNL     1      -5.421  -1.564   0.584  1.00  0.00     0.041 A 
HETATM   10  C   UNL     1      -5.656  -2.896   1.005  1.00  0.00     0.030 A 
HETATM   11  N   UNL     1      -4.146  -1.183   0.193  1.00  0.00    -0.312 N 
HETATM   12  C   UNL     1      -4.628  -3.780   1.019  1.00  0.00     0.004 A 
HETATM   13  C   UNL     1      -3.340  -3.367   0.616  1.00  0.00     0.018 A 
HETATM   14  C   UNL     1      -3.119  -2.103   0.217  1.00  0.00     0.098 A 
BRANCH   7  15
HETATM   15  C   UNL     1      -5.929   1.915  -0.265  1.00  0.00     0.273 C 
HETATM   16  O   UNL     1      -7.095   2.199  -0.083  1.00  0.00    -0.301 OA
ENDBRANCH   7  15
ENDBRANCH   4   6
ENDBRANCH   3   4
BRANCH   3  17
HETATM   17  C   UNL     1      -1.667  -0.810  -1.664  1.00  0.00     0.160 C 
HETATM   18  OXT UNL     1      -2.500  -0.828  -2.539  1.00  0.00    -0.649 OA
BRANCH  17  19
HETATM   19  O   UNL     1      -0.588  -1.604  -1.748  1.00  0.00    -0.775 OA
HETATM   20  H   UNL     1      -0.521  -2.172  -2.527  1.00  0.00     0.167 HD
ENDBRANCH  17  19
ENDBRANCH   3  17
ENDBRANCH   1   3
BRANCH   1  21
HETATM   21  S   UNL     1      -0.790   2.076   1.100  1.00  0.00     0.164 S 
HETATM   22  O   UNL     1      -2.103   2.609   1.203  1.00  0.00    -0.228 OA
BRANCH  21  23
HETATM   23  O   UNL     1      -0.756   1.033   2.208  1.00  0.00    -0.305 OA
HETATM   24  H   UNL     1      -0.817   1.404   3.099  1.00  0.00     0.230 HD
ENDBRANCH  21  23
ENDBRANCH   1  21
BRANCH   1  25
HETATM   25  C   UNL     1       0.651   0.286  -0.383  1.00  0.00     0.206 C 
BRANCH  25  26
HETATM   26  O   UNL     1       1.770   1.208  -0.316  1.00  0.00    -0.319 OA
BRANCH  26  27
HETATM   27  C   UNL     1       3.000   0.672  -0.287  1.00  0.00     0.263 C 
HETATM   28  O   UNL     1       3.137  -0.528  -0.318  1.00  0.00    -0.265 OA
BRANCH  27  29
HETATM   29  C   UNL     1       4.211   1.567  -0.218  1.00  0.00     0.149 C 
BRANCH  29  30
HETATM   30  C   UNL     1       5.459   0.722  -0.198  1.00  0.00    -0.046 A 
HETATM   31  C   UNL     1       6.074   0.371  -1.385  1.00  0.00     0.010 A 
HETATM   32  C   UNL     1       7.218  -0.404  -1.372  1.00  0.00     0.040 A 
HETATM   33  C   UNL     1       7.753  -0.829  -0.167  1.00  0.00     0.098 A 
HETATM   34  C   UNL     1       7.132  -0.480   1.028  1.00  0.00     0.099 A 
HETATM   35  C   UNL     1       5.984   0.296   1.008  1.00  0.00     0.047 A 
BRANCH  33  36
HETATM   36  O   UNL     1       8.880  -1.591  -0.152  1.00  0.00    -0.358 OA
HETATM   37  H   UNL     1       9.699  -1.080  -0.109  1.00  0.00     0.217 HD
ENDBRANCH  33  36
BRANCH  34  38
HETATM   38  O   UNL     1       7.650  -0.900   2.214  1.00  0.00    -0.358 OA
HETATM   39  H   UNL     1       7.306  -1.752   2.513  1.00  0.00     0.217 HD
ENDBRANCH  34  38
ENDBRANCH  29  30
ENDBRANCH  27  29
ENDBRANCH  26  27
ENDBRANCH  25  26
ENDBRANCH   1  25
TORSDOF 15
