REMARK  9 active torsions:
REMARK  status: ('A' for Active; 'I' for Inactive)
REMARK    1  A    between atoms: C_1  and  C_3 
REMARK    2  A    between atoms: C_2  and  S_14 
REMARK    3  A    between atoms: C_3  and  C_4 
REMARK    4  A    between atoms: C_3  and  C_7 
REMARK    5  A    between atoms: CA_5  and  C_11 
REMARK    6  A    between atoms: C_7  and  O_8 
REMARK    7  A    between atoms: C_11  and  OXT_12 
REMARK    8  A    between atoms: S_14  and  C_15 
REMARK    9  A    between atoms: C_17  and  C_22 
REMARK       I    between atoms: C_22  and  N_23 
ROOT
HETATM    1  C   UNL     1       0.932   0.227   0.367  1.00  0.00     0.018 A 
HETATM    2  C   UNL     1       2.896  -0.492  -0.837  1.00  0.00     0.103 A 
HETATM    3  CA  UNL     1       1.651   1.306   0.004  1.00  0.00     0.116 A 
HETATM    4  N   UNL     1       2.816   0.969  -0.704  1.00  0.00    -0.378 N 
HETATM    5  C   UNL     1       1.638  -1.017  -0.122  1.00  0.00     0.047 A 
HETATM    6  C   UNL     1       2.022  -1.913   1.058  1.00  0.00     0.017 C 
HETATM    7  H   UNL     1       3.464   1.601  -1.052  1.00  0.00     0.160 HD
ENDROOT
BRANCH   1   8
HETATM    8  S   UNL     1      -0.586   0.259   1.260  1.00  0.00    -0.125 SA
BRANCH   8   9
HETATM    9  C   UNL     1      -1.689  -0.484   0.033  1.00  0.00     0.083 C 
HETATM   10  C   UNL     1      -3.136  -0.580   0.582  1.00  0.00     0.062 C 
HETATM   11  C   UNL     1      -3.969  -0.564  -0.724  1.00  0.00     0.312 C 
HETATM   12  N   UNL     1      -3.254   0.374  -1.616  1.00  0.00     0.098 N 
HETATM   13  C   UNL     1      -1.843   0.440  -1.193  1.00  0.00     0.286 C 
HETATM   14  H   UNL     1      -3.330   0.085  -2.579  1.00  0.00     0.317 HD
BRANCH  11  15
HETATM   15  C   UNL     1      -5.365  -0.067  -0.451  1.00  0.00     0.252 C 
HETATM   16  N   UNL     1      -6.286  -0.900   0.073  1.00  0.00    -0.359 N 
HETATM   17  C   UNL     1      -5.930  -2.288   0.377  1.00  0.00     0.152 C 
HETATM   18  C   UNL     1      -7.643  -0.417   0.339  1.00  0.00     0.152 C 
HETATM   19  O   UNL     1      -5.660   1.082  -0.702  1.00  0.00    -0.271 OA
ENDBRANCH  11  15
ENDBRANCH   8   9
ENDBRANCH   1   8
BRANCH   3  20
HETATM   20  C   UNL     1       1.273   2.636   0.304  1.00  0.00     0.194 C 
HETATM   21  O   UNL     1       0.202   2.859   0.838  1.00  0.00    -0.645 OA
BRANCH  20  22
HETATM   22  OXT UNL     1       2.101   3.658  -0.002  1.00  0.00    -0.772 OA
HETATM   23  HXT UNL     1       1.757   4.528   0.240  1.00  0.00     0.167 HD
ENDBRANCH  20  22
ENDBRANCH   3  20
BRANCH   2  24
HETATM   24  C   UNL     1       4.158  -1.021  -0.152  1.00  0.00     0.099 C 
BRANCH  24  25
HETATM   25  C   UNL     1       4.269  -0.424   1.227  1.00  0.00     0.240 C 
HETATM   26  O   UNL     1       4.432  -1.141   2.185  1.00  0.00    -0.306 OA
ENDBRANCH  24  25
BRANCH  24  27
HETATM   27  C   UNL     1       5.387  -0.632  -0.976  1.00  0.00     0.126 C 
HETATM   28  C   UNL     1       6.649  -1.161  -0.292  1.00  0.00     0.040 C 
BRANCH  27  29
HETATM   29  O   UNL     1       5.282  -1.198  -2.284  1.00  0.00    -0.395 OA
HETATM   30  H   UNL     1       5.227  -2.164  -2.292  1.00  0.00     0.210 HD
ENDBRANCH  27  29
ENDBRANCH  24  27
ENDBRANCH   2  24
TORSDOF 9
