REMARK  11 active torsions:
REMARK  status: ('A' for Active; 'I' for Inactive)
REMARK    1  A    between atoms: C_1  and  C_3 
REMARK    2  A    between atoms: C_3  and  C_5 
REMARK    3  A    between atoms: C_3  and  N_4 
REMARK    4  A    between atoms: C_3  and  O_26 
REMARK       I    between atoms: N_4  and  C_13 
REMARK    5  A    between atoms: CA_9  and  C_10 
REMARK    6  A    between atoms: C_10  and  OXT_29 
REMARK    7  A    between atoms: C_13  and  C_15 
REMARK    8  A    between atoms: C_15  and  C_23 
REMARK    9  A    between atoms: C_15  and  C_16 
REMARK   10  A    between atoms: C_19  and  O_20 
REMARK   11  A    between atoms: C_23  and  O_25 
ROOT
HETATM    1  N   UNL     1       0.160   1.300   0.471  1.00  0.00    -0.319 N 
HETATM    2  C   UNL     1      -0.903   0.555   0.106  1.00  0.00     0.239 C 
HETATM    3  O   UNL     1      -0.955   0.077  -1.007  1.00  0.00    -0.272 OA
HETATM    4  H   UNL     1       0.201   1.683   1.361  1.00  0.00     0.166 HD
ENDROOT
BRANCH   1   5
HETATM    5  C   UNL     1       1.252   1.532  -0.478  1.00  0.00     0.237 C 
BRANCH   5   6
HETATM    6  C   UNL     1       0.716   2.235  -1.699  1.00  0.00     0.296 C 
HETATM    7  O   UNL     1      -0.458   2.509  -1.771  1.00  0.00    -0.301 OA
ENDBRANCH   5   6
BRANCH   5   8
HETATM    8  C   UNL     1       1.864   0.192  -0.889  1.00  0.00     0.308 C 
HETATM    9  N   UNL     1       2.399  -0.468   0.295  1.00  0.00    -0.245 NA
HETATM   10  CA  UNL     1       3.503  -1.148   0.287  1.00  0.00     0.135 C 
HETATM   11  C   UNL     1       4.278  -1.260  -0.971  1.00  0.00    -0.009 C 
HETATM   12  C   UNL     1       3.602  -0.759  -2.234  1.00  0.00     0.211 C 
HETATM   13  C   UNL     1       5.504  -1.773  -0.993  1.00  0.00     0.023 C 
HETATM   14  O   UNL     1       2.873   0.423  -1.869  1.00  0.00    -0.355 OA
BRANCH  10  15
HETATM   15  C   UNL     1       3.988  -1.809   1.528  1.00  0.00     0.196 C 
HETATM   16  O   UNL     1       4.984  -2.502   1.497  1.00  0.00    -0.645 OA
BRANCH  15  17
HETATM   17  OXT UNL     1       3.321  -1.639   2.685  1.00  0.00    -0.772 OA
HETATM   18  HXT UNL     1       3.674  -2.089   3.465  1.00  0.00     0.167 HD
ENDBRANCH  15  17
ENDBRANCH  10  15
ENDBRANCH   5   8
BRANCH   5  19
HETATM   19  O   UNL     1       2.253   2.345   0.138  1.00  0.00    -0.356 OA
HETATM   20  C   UNL     1       1.757   3.572   0.676  1.00  0.00     0.205 C 
ENDBRANCH   5  19
ENDBRANCH   1   5
BRANCH   2  21
HETATM   21  C   UNL     1      -2.026   0.317   1.082  1.00  0.00     0.208 C 
BRANCH  21  22
HETATM   22  C   UNL     1      -2.629   1.637   1.487  1.00  0.00     0.157 C 
HETATM   23  O   UNL     1      -2.191   2.666   1.030  1.00  0.00    -0.649 OA
BRANCH  22  24
HETATM   24  O   UNL     1      -3.652   1.670   2.356  1.00  0.00    -0.775 OA
HETATM   25  H   UNL     1      -4.005   2.540   2.585  1.00  0.00     0.167 HD
ENDBRANCH  22  24
ENDBRANCH  21  22
BRANCH  21  26
HETATM   26  C   UNL     1      -3.082  -0.540   0.433  1.00  0.00    -0.035 A 
HETATM   27  C   UNL     1      -3.411  -1.765   0.982  1.00  0.00     0.011 A 
HETATM   28  C   UNL     1      -4.379  -2.553   0.389  1.00  0.00     0.037 A 
HETATM   29  C   UNL     1      -5.021  -2.112  -0.760  1.00  0.00     0.065 A 
HETATM   30  C   UNL     1      -4.690  -0.882  -1.309  1.00  0.00     0.037 A 
HETATM   31  C   UNL     1      -3.725  -0.096  -0.708  1.00  0.00     0.011 A 
BRANCH  29  32
HETATM   32  O   UNL     1      -5.973  -2.885  -1.345  1.00  0.00    -0.361 OA
HETATM   33  H   UNL     1      -6.869  -2.720  -1.019  1.00  0.00     0.217 HD
ENDBRANCH  29  32
ENDBRANCH  21  26
ENDBRANCH   2  21
TORSDOF 11
