REMARK  12 active torsions:
REMARK  status: ('A' for Active; 'I' for Inactive)
REMARK    1  A    between atoms: O_1  and  C_2 
REMARK    2  A    between atoms: C_2  and  CA_4 
REMARK    3  A    between atoms: C_10  and  C_11 
REMARK    4  A    between atoms: C_11  and  C_12 
REMARK    5  A    between atoms: C_11  and  O_15 
REMARK    6  A    between atoms: C_11  and  N_17 
REMARK    7  A    between atoms: C_12  and  O_13 
REMARK       I    between atoms: N_17  and  C_18 
REMARK    8  A    between atoms: C_18  and  C_20 
REMARK    9  A    between atoms: C_20  and  C_21 
REMARK   10  A    between atoms: C_20  and  C_24 
REMARK   11  A    between atoms: C_21  and  O_22 
REMARK   12  A    between atoms: C_28  and  O_29 
ROOT
HETATM    1  C   UNL     1       1.268  -1.626  -0.457  1.00  0.00     0.270 C 
ENDROOT
BRANCH   1   2
HETATM    2  C   UNL     1       1.729  -0.677   0.651  1.00  0.00     0.311 C 
HETATM    3  N   UNL     1       2.076   0.610   0.060  1.00  0.00    -0.245 NA
HETATM    4  CA  UNL     1       3.078   1.326   0.465  1.00  0.00     0.135 C 
HETATM    5  C   UNL     1       3.934   0.823   1.564  1.00  0.00    -0.009 C 
HETATM    6  C   UNL     1       5.082   1.413   1.881  1.00  0.00     0.023 C 
HETATM    7  C   UNL     1       3.434  -0.400   2.311  1.00  0.00     0.211 C 
HETATM    8  O   UNL     1       2.835  -1.263   1.331  1.00  0.00    -0.355 OA
BRANCH   4   9
HETATM    9  C   UNL     1       3.369   2.638  -0.173  1.00  0.00     0.196 C 
HETATM   10  OXT UNL     1       4.236   3.355   0.282  1.00  0.00    -0.645 OA
BRANCH   9  11
HETATM   11  O   UNL     1       2.671   3.030  -1.255  1.00  0.00    -0.772 OA
HETATM   12  H   UNL     1       2.896   3.891  -1.635  1.00  0.00     0.167 HD
ENDBRANCH   9  11
ENDBRANCH   4   9
ENDBRANCH   1   2
BRANCH   1  13
HETATM   13  C   UNL     1       0.821  -2.930   0.152  1.00  0.00     0.203 C 
HETATM   14  O   UNL     1       1.429  -3.947  -0.084  1.00  0.00    -0.646 OA
BRANCH  13  15
HETATM   15  O   UNL     1      -0.252  -2.961   0.957  1.00  0.00    -0.773 OA
HETATM   16  H   UNL     1      -0.500  -3.821   1.324  1.00  0.00     0.167 HD
ENDBRANCH  13  15
ENDBRANCH   1  13
BRANCH   1  17
HETATM   17  O   UNL     1       2.349  -1.867  -1.359  1.00  0.00    -0.353 OA
HETATM   18  C   UNL     1       1.986  -2.629  -2.512  1.00  0.00     0.205 C 
ENDBRANCH   1  17
BRANCH   1  19
HETATM   19  N   UNL     1       0.151  -1.019  -1.186  1.00  0.00    -0.316 N 
HETATM   20  C   UNL     1      -0.986  -0.702  -0.534  1.00  0.00     0.239 C 
HETATM   21  O   UNL     1      -1.084  -0.919   0.655  1.00  0.00    -0.272 OA
HETATM   22  H   UNL     1       0.229  -0.846  -2.137  1.00  0.00     0.166 HD
BRANCH  20  23
HETATM   23  C   UNL     1      -2.135  -0.078  -1.284  1.00  0.00     0.208 C 
BRANCH  23  24
HETATM   24  C   UNL     1      -1.688   1.226  -1.893  1.00  0.00     0.157 C 
HETATM   25  O   UNL     1      -0.553   1.609  -1.735  1.00  0.00    -0.649 OA
BRANCH  24  26
HETATM   26  O   UNL     1      -2.551   1.962  -2.611  1.00  0.00    -0.775 OA
HETATM   27  H   UNL     1      -2.219   2.790  -2.982  1.00  0.00     0.167 HD
ENDBRANCH  24  26
ENDBRANCH  23  24
BRANCH  23  28
HETATM   28  C   UNL     1      -3.276   0.176  -0.333  1.00  0.00    -0.035 A 
HETATM   29  C   UNL     1      -4.502  -0.424  -0.550  1.00  0.00     0.011 A 
HETATM   30  C   UNL     1      -5.550  -0.192   0.321  1.00  0.00     0.037 A 
HETATM   31  C   UNL     1      -5.370   0.643   1.414  1.00  0.00     0.065 A 
HETATM   32  C   UNL     1      -4.136   1.239   1.633  1.00  0.00     0.037 A 
HETATM   33  C   UNL     1      -3.092   1.005   0.759  1.00  0.00     0.011 A 
BRANCH  31  34
HETATM   34  O   UNL     1      -6.398   0.872   2.272  1.00  0.00    -0.361 OA
HETATM   35  H   UNL     1      -6.946   1.633   2.035  1.00  0.00     0.217 HD
ENDBRANCH  31  34
ENDBRANCH  23  28
ENDBRANCH  20  23
ENDBRANCH   1  19
TORSDOF 12
