REMARK  14 active torsions:
REMARK  status: ('A' for Active; 'I' for Inactive)
REMARK    1  A    between atoms: C_5  and  C_9 
REMARK    2  A    between atoms: C_6  and  N_17 
REMARK    3  A    between atoms: CA_10  and  C_11 
REMARK    4  A    between atoms: CA_10  and  C_12 
REMARK    5  A    between atoms: CA_10  and  N_17 
REMARK    6  A    between atoms: C_11  and  OXT_21 
REMARK    7  A    between atoms: C_12  and  C_14 
REMARK    8  A    between atoms: C_12  and  S_26 
REMARK    9  A    between atoms: C_14  and  O_24 
REMARK       I    between atoms: C_15  and  N_18 
REMARK   10  A    between atoms: C_15  and  O_24 
REMARK   11  A    between atoms: N_18  and  C_27 
REMARK   12  A    between atoms: O_23  and  S_26 
REMARK   13  A    between atoms: C_27  and  C_28 
REMARK   14  A    between atoms: C_28  and  N_29 
ROOT
HETATM    1  CA  UNL     1      -0.811   0.050   0.448  1.00  0.00     0.184 C 
ENDROOT
BRANCH   1   2
HETATM    2  C   UNL     1      -0.788   1.105   1.524  1.00  0.00     0.160 C 
HETATM    3  O   UNL     1      -1.584   1.061   2.431  1.00  0.00    -0.649 OA
BRANCH   2   4
HETATM    4  OXT UNL     1       0.119   2.094   1.474  1.00  0.00    -0.775 OA
HETATM    5  HXT UNL     1       0.094   2.748   2.186  1.00  0.00     0.167 HD
ENDBRANCH   2   4
ENDBRANCH   1   2
BRANCH   1   6
HETATM    6  C   UNL     1       0.533  -0.681   0.421  1.00  0.00     0.107 C 
HETATM    7  C   UNL     1       0.725  -1.444   1.733  1.00  0.00     0.036 C 
BRANCH   6   8
HETATM    8  C   UNL     1       1.664   0.337   0.254  1.00  0.00     0.207 C 
BRANCH   8   9
HETATM    9  O   UNL     1       2.939  -0.357   0.228  1.00  0.00    -0.302 OA
BRANCH   9  10
HETATM   10  C   UNL     1       4.044   0.400   0.086  1.00  0.00     0.360 C 
HETATM   11  N   UNL     1       5.259  -0.181   0.054  1.00  0.00    -0.335 N 
HETATM   12  H   UNL     1       5.338  -1.145   0.135  1.00  0.00     0.164 HD
HETATM   13  O   UNL     1       3.944   1.607  -0.015  1.00  0.00    -0.239 OA
BRANCH  11  14
HETATM   14  C   UNL     1       6.461   0.642  -0.101  1.00  0.00     0.154 C 
BRANCH  14  15
HETATM   15  C   UNL     1       7.699  -0.258  -0.105  1.00  0.00     0.286 C 
BRANCH  15  16
HETATM   16  N   UNL     1       8.903   0.568  -0.261  1.00  0.00     0.079 N 
HETATM   17  H   UNL     1       9.735  -0.004  -0.267  1.00  0.00     0.312 HD
HETATM   18  H   UNL     1       8.848   1.135  -1.094  1.00  0.00     0.312 HD
ENDBRANCH  15  16
ENDBRANCH  14  15
ENDBRANCH  11  14
ENDBRANCH   9  10
ENDBRANCH   8   9
ENDBRANCH   6   8
BRANCH   6  19
HETATM   19  S   UNL     1       0.559  -1.848  -0.967  1.00  0.00     0.164 S 
HETATM   20  O   UNL     1       1.881  -2.338  -1.149  1.00  0.00    -0.228 OA
BRANCH  19  21
HETATM   21  O   UNL     1       0.360  -0.946  -2.177  1.00  0.00    -0.305 OA
HETATM   22  H   UNL     1       0.348  -1.417  -3.021  1.00  0.00     0.230 HD
ENDBRANCH  19  21
ENDBRANCH   6  19
ENDBRANCH   1   6
BRANCH   1  23
HETATM   23  N   UNL     1      -1.885  -0.911   0.728  1.00  0.00    -0.262 NA
HETATM   24  H   UNL     1      -1.941  -1.114   1.715  1.00  0.00     0.130 HD
BRANCH  23  25
HETATM   25  C   UNL     1      -3.098  -0.453   0.247  1.00  0.00     0.101 A 
HETATM   26  C   UNL     1      -4.285  -1.184   0.191  1.00  0.00     0.043 A 
HETATM   27  C   UNL     1      -5.272  -0.331  -0.369  1.00  0.00     0.048 A 
HETATM   28  C   UNL     1      -4.671   0.866  -0.631  1.00  0.00     0.041 A 
HETATM   29  C   UNL     1      -5.170   2.070  -1.186  1.00  0.00     0.030 A 
HETATM   30  N   UNL     1      -3.340   0.787  -0.252  1.00  0.00    -0.312 N 
HETATM   31  C   UNL     1      -4.337   3.129  -1.337  1.00  0.00     0.004 A 
HETATM   32  C   UNL     1      -2.986   3.022  -0.944  1.00  0.00     0.018 A 
HETATM   33  C   UNL     1      -2.514   1.879  -0.419  1.00  0.00     0.098 A 
BRANCH  26  34
HETATM   34  C   UNL     1      -4.471  -2.523   0.613  1.00  0.00     0.273 C 
HETATM   35  O   UNL     1      -5.561  -3.047   0.510  1.00  0.00    -0.301 OA
ENDBRANCH  26  34
ENDBRANCH  23  25
ENDBRANCH   1  23
TORSDOF 14
