REMARK  10 active torsions:
REMARK  status: ('A' for Active; 'I' for Inactive)
REMARK    1  A    between atoms: C_1  and  N_25 
REMARK    2  A    between atoms: C_5  and  C_9 
REMARK    3  A    between atoms: C_6  and  N_18 
REMARK    4  A    between atoms: CA_10  and  C_11 
REMARK    5  A    between atoms: CA_10  and  C_12 
REMARK    6  A    between atoms: CA_10  and  N_18 
REMARK    7  A    between atoms: C_11  and  OXT_22 
REMARK    8  A    between atoms: C_12  and  S_27 
REMARK    9  A    between atoms: C_15  and  O_19 
REMARK       I    between atoms: C_15  and  N_25 
REMARK   10  A    between atoms: O_24  and  S_27 
ROOT
HETATM    1  C   UNL     1      -3.600  -0.725  -0.324  1.00  0.00     0.040 A 
HETATM    2  C   UNL     1      -2.977  -1.639   0.472  1.00  0.00     0.059 A 
HETATM    3  C   UNL     1      -1.576  -1.812   0.364  1.00  0.00     0.043 A 
HETATM    4  C   UNL     1      -0.716  -2.642   1.028  1.00  0.00     0.048 A 
HETATM    5  C   UNL     1       0.621  -2.374   0.491  1.00  0.00     0.043 A 
HETATM    6  C   UNL     1       0.462  -1.382  -0.476  1.00  0.00     0.101 A 
HETATM    7  C   UNL     1      -1.513  -0.133  -1.338  1.00  0.00     0.101 A 
HETATM    8  C   UNL     1      -2.840   0.037  -1.243  1.00  0.00     0.047 A 
HETATM    9  N   UNL     1      -0.857  -1.053  -0.544  1.00  0.00    -0.312 N 
ENDROOT
BRANCH   6  10
HETATM   10  N   UNL     1       1.473  -0.827  -1.238  1.00  0.00    -0.262 NA
HETATM   11  H   UNL     1       1.868  -1.510  -1.868  1.00  0.00     0.130 HD
BRANCH  10  12
HETATM   12  CA  UNL     1       2.512  -0.236  -0.384  1.00  0.00     0.182 C 
BRANCH  12  13
HETATM   13  C   UNL     1       3.868  -0.498  -0.988  1.00  0.00     0.160 C 
HETATM   14  O   UNL     1       3.959  -1.113  -2.024  1.00  0.00    -0.649 OA
BRANCH  13  15
HETATM   15  OXT UNL     1       4.974  -0.047  -0.375  1.00  0.00    -0.775 OA
HETATM   16  HXT UNL     1       5.821  -0.239  -0.801  1.00  0.00     0.167 HD
ENDBRANCH  13  15
ENDBRANCH  12  13
BRANCH  12  17
HETATM   17  C   UNL     1       2.285   1.273  -0.275  1.00  0.00     0.082 C 
HETATM   18  C   UNL     1       2.353   1.901  -1.668  1.00  0.00     0.034 C 
HETATM   19  C   UNL     1       0.909   1.539   0.339  1.00  0.00     0.034 C 
BRANCH  17  20
HETATM   20  S   UNL     1       3.568   2.003   0.780  1.00  0.00     0.161 S 
HETATM   21  O   UNL     1       3.350   1.614   2.129  1.00  0.00    -0.228 OA
BRANCH  20  22
HETATM   22  O   UNL     1       3.206   3.481   0.787  1.00  0.00    -0.305 OA
HETATM   23  H   UNL     1       3.802   4.029   1.315  1.00  0.00     0.230 HD
ENDBRANCH  20  22
ENDBRANCH  17  20
ENDBRANCH  12  17
ENDBRANCH  10  12
ENDBRANCH   6  10
BRANCH   5  24
HETATM   24  C   UNL     1       1.831  -2.997   0.878  1.00  0.00     0.273 C 
HETATM   25  O   UNL     1       1.814  -3.918   1.669  1.00  0.00    -0.301 OA
ENDBRANCH   5  24
BRANCH   1  26
HETATM   26  N   UNL     1      -4.983  -0.545  -0.236  1.00  0.00    -0.303 N 
HETATM   27  C   UNL     1      -5.489   0.679   0.016  1.00  0.00     0.364 C 
HETATM   28  O   UNL     1      -4.750   1.642   0.069  1.00  0.00    -0.238 OA
HETATM   29  H   UNL     1      -5.580  -1.300  -0.357  1.00  0.00     0.171 HD
BRANCH  27  30
HETATM   30  O   UNL     1      -6.812   0.834   0.208  1.00  0.00    -0.309 OA
HETATM   31  C   UNL     1      -7.286   2.181   0.475  1.00  0.00     0.215 C 
ENDBRANCH  27  30
ENDBRANCH   1  26
TORSDOF 10
