REMARK  4 active torsions:
REMARK  status: ('A' for Active; 'I' for Inactive)
REMARK    1  A    between atoms: B_1  and  O_3 
REMARK    2  A    between atoms: B_1  and  O_2 
REMARK    3  A    between atoms: B_1  and  C_4 
REMARK    4  A    between atoms: N_7  and  C_8 
ROOT
HETATM    1  C   UNL     1       2.638   0.110   0.000  1.00  0.00     0.004 A 
HETATM    2  C   UNL     1       2.621   1.521   0.000  1.00  0.00     0.141 A 
HETATM    3  N   UNL     1       1.377   1.912   0.001  1.00  0.00    -0.180 NA
HETATM    4  N   UNL     1       0.549   0.783   0.001  1.00  0.00    -0.246 N 
HETATM    5  C   UNL     1       1.326  -0.314  -0.005  1.00  0.00     0.121 A 
ENDROOT
BRANCH   4   6
HETATM    6  C   UNL     1      -0.853   0.795   0.001  1.00  0.00     0.059 A 
HETATM    7  C   UNL     1      -1.538   2.003   0.001  1.00  0.00     0.031 A 
HETATM    8  C   UNL     1      -2.920   2.012   0.001  1.00  0.00     0.004 A 
HETATM    9  C   UNL     1      -3.621   0.821   0.001  1.00  0.00     0.024 A 
HETATM   10  C   UNL     1      -2.941  -0.385   0.001  1.00  0.00     0.036 A 
HETATM   11  C   UNL     1      -1.559  -0.400  -0.005  1.00  0.00     0.055 A 
HETATM   12 CL   UNL     1      -3.825  -1.879   0.000  1.00  0.00    -0.084 Cl
ENDBRANCH   4   6
BRANCH   1  13
HETATM   13  B   UNL     1       3.913  -0.807  -0.001  1.00  0.00     0.532 B 
BRANCH  13  14
HETATM   14  O   UNL     1       3.772  -2.220   0.005  1.00  0.00    -0.433 OA
HETATM   15  H   UNL     1       4.611  -2.699   0.003  1.00  0.00     0.185 HD
ENDBRANCH  13  14
BRANCH  13  16
HETATM   16  O   UNL     1       5.207  -0.223  -0.001  1.00  0.00    -0.433 OA
HETATM   17  H   UNL     1       5.929  -0.866  -0.002  1.00  0.00     0.185 HD
ENDBRANCH  13  16
ENDBRANCH   1  13
TORSDOF 4
