REMARK  9 active torsions:
REMARK  status: ('A' for Active; 'I' for Inactive)
REMARK    1  A    between atoms: C_3  and  C_12 
REMARK    2  A    between atoms: C_6  and  S_26 
REMARK    3  A    between atoms: C_7  and  OXT_22 
REMARK    4  A    between atoms: C_7  and  CA_19 
REMARK    5  A    between atoms: C_8  and  C_15 
REMARK    6  A    between atoms: C_8  and  C_14 
REMARK    7  A    between atoms: C_8  and  C_16 
REMARK       I    between atoms: N_11  and  C_12 
REMARK    8  A    between atoms: C_16  and  O_25 
REMARK    9  A    between atoms: C_18  and  S_26 
ROOT
HETATM    1  C   UNL     1      -0.946   0.759   0.637  1.00  0.00     0.112 C 
HETATM    2  C   UNL     1      -1.592  -0.639   0.800  1.00  0.00     0.027 C 
HETATM    3  C   UNL     1      -1.311  -1.522  -0.417  1.00  0.00     0.014 C 
HETATM    4  C   UNL     1      -3.089  -0.258   0.881  1.00  0.00     0.127 C 
HETATM    5  CA  UNL     1      -2.058   1.606   0.060  1.00  0.00     0.116 C 
HETATM    6  N   UNL     1      -3.190   1.039   0.202  1.00  0.00    -0.280 NA
ENDROOT
BRANCH   1   7
HETATM    7  S   UNL     1       0.460   0.681  -0.507  1.00  0.00    -0.151 SA
BRANCH   7   8
HETATM    8  C   UNL     1       1.696  -0.261   0.429  1.00  0.00     0.078 C 
HETATM    9  C   UNL     1       2.147   0.522   1.680  1.00  0.00     0.285 C 
HETATM   10  N   UNL     1       3.599   0.313   1.825  1.00  0.00     0.098 N 
HETATM   11  C   UNL     1       4.058  -0.579   0.740  1.00  0.00     0.312 C 
HETATM   12  H   UNL     1       4.095   1.192   1.805  1.00  0.00     0.317 HD
HETATM   13  C   UNL     1       3.008  -0.405  -0.386  1.00  0.00     0.062 C 
BRANCH  11  14
HETATM   14  C   UNL     1       5.422  -0.159   0.255  1.00  0.00     0.252 C 
HETATM   15  N   UNL     1       6.157  -0.998  -0.500  1.00  0.00    -0.359 N 
HETATM   16  C   UNL     1       7.483  -0.589  -0.970  1.00  0.00     0.152 C 
HETATM   17  C   UNL     1       5.631  -2.320  -0.850  1.00  0.00     0.152 C 
HETATM   18  O   UNL     1       5.857   0.936   0.545  1.00  0.00    -0.271 OA
ENDBRANCH  11  14
ENDBRANCH   7   8
ENDBRANCH   1   7
BRANCH   5  19
HETATM   19  C   UNL     1      -1.857   2.924  -0.586  1.00  0.00     0.192 C 
HETATM   20  O   UNL     1      -0.734   3.353  -0.754  1.00  0.00    -0.645 OA
BRANCH  19  21
HETATM   21  OXT UNL     1      -2.921   3.646  -0.988  1.00  0.00    -0.772 OA
HETATM   22  HXT UNL     1      -2.740   4.500  -1.405  1.00  0.00     0.167 HD
ENDBRANCH  19  21
ENDBRANCH   5  19
BRANCH   4  23
HETATM   23  C   UNL     1      -3.943  -1.303   0.159  1.00  0.00     0.100 C 
BRANCH  23  24
HETATM   24  C   UNL     1      -3.662  -1.245  -1.321  1.00  0.00     0.240 C 
HETATM   25  O   UNL     1      -3.232  -2.218  -1.893  1.00  0.00    -0.306 OA
ENDBRANCH  23  24
BRANCH  23  26
HETATM   26  C   UNL     1      -5.424  -1.013   0.409  1.00  0.00     0.126 C 
HETATM   27  C   UNL     1      -6.277  -2.058  -0.313  1.00  0.00     0.040 C 
BRANCH  26  28
HETATM   28  O   UNL     1      -5.690  -1.068   1.811  1.00  0.00    -0.395 OA
HETATM   29  H   UNL     1      -5.495  -1.924   2.216  1.00  0.00     0.210 HD
ENDBRANCH  26  28
ENDBRANCH  23  26
ENDBRANCH   4  23
TORSDOF 9
