REMARK  10 active torsions:
REMARK  status: ('A' for Active; 'I' for Inactive)
REMARK    1  A    between atoms: C_2  and  C_12 
REMARK    2  A    between atoms: C_2  and  O_19 
REMARK    3  A    between atoms: B_4  and  O_14 
REMARK    4  A    between atoms: B_4  and  C_9 
REMARK    5  A    between atoms: B_4  and  O_15 
REMARK    6  A    between atoms: C_7  and  C_8 
REMARK    7  A    between atoms: C_8  and  S_20 
REMARK    8  A    between atoms: C_9  and  C_10 
REMARK    9  A    between atoms: C_9  and  N_13 
REMARK   10  A    between atoms: N_13  and  S_20 
ROOT
HETATM    1  O   UNL     1       0.561   0.039   1.605  1.00  0.00    -0.206 OA
HETATM    2  O   UNL     1       0.640  -2.356   0.988  1.00  0.00    -0.206 OA
HETATM    3  S   UNL     1       0.800  -0.985   0.649  1.00  0.00     0.230 S 
ENDROOT
BRANCH   3   4
HETATM    4  C   UNL     1      -0.049  -0.611  -0.910  1.00  0.00     0.201 C 
BRANCH   4   5
HETATM    5  C   UNL     1      -1.539  -0.712  -0.707  1.00  0.00    -0.042 A 
HETATM    6  C   UNL     1      -2.257   0.399  -0.317  1.00  0.00     0.026 A 
HETATM    7  C   UNL     1      -3.637   0.303  -0.130  1.00  0.00     0.038 A 
HETATM    8  C   UNL     1      -4.282  -0.916  -0.345  1.00  0.00     0.018 A 
HETATM    9  C   UNL     1      -3.552  -2.018  -0.742  1.00  0.00     0.002 A 
HETATM   10  C   UNL     1      -2.183  -1.919  -0.914  1.00  0.00     0.008 A 
BRANCH   7  11
HETATM   11  C   UNL     1      -4.412   1.487   0.294  1.00  0.00     0.176 C 
HETATM   12  O   UNL     1      -3.849   2.547   0.481  1.00  0.00    -0.646 OA
BRANCH  11  13
HETATM   13  O   UNL     1      -5.744   1.392   0.474  1.00  0.00    -0.773 OA
HETATM   14  H   UNL     1      -6.208   2.194   0.752  1.00  0.00     0.167 HD
ENDBRANCH  11  13
ENDBRANCH   7  11
ENDBRANCH   4   5
ENDBRANCH   3   4
BRANCH   3  15
HETATM   15  N   UNL     1       2.410  -0.839   0.289  1.00  0.00    -0.318 N 
HETATM   16  H   UNL     1       2.988  -1.617   0.328  1.00  0.00     0.171 HD
BRANCH  15  17
HETATM   17  C   UNL     1       2.960   0.465  -0.089  1.00  0.00     0.118 C 
BRANCH  17  18
HETATM   18  B   UNL     1       4.464   0.547   0.355  1.00  0.00     0.515 B 
BRANCH  18  19
HETATM   19  O   UNL     1       5.407  -0.385  -0.154  1.00  0.00    -0.436 OA
HETATM   20  H   UNL     1       5.030  -1.031  -0.767  1.00  0.00     0.184 HD
ENDBRANCH  18  19
BRANCH  18  21
HETATM   21  O   UNL     1       4.881   1.553   1.267  1.00  0.00    -0.436 OA
HETATM   22  H   UNL     1       5.823   1.523   1.481  1.00  0.00     0.184 HD
ENDBRANCH  18  21
ENDBRANCH  17  18
BRANCH  17  23
HETATM   23  C   UNL     1       2.867   0.637  -1.607  1.00  0.00     0.017 C 
HETATM   24  C   UNL     1       3.443   1.998  -2.002  1.00  0.00     0.006 C 
ENDBRANCH  17  23
ENDBRANCH  15  17
ENDBRANCH   3  15
TORSDOF 10
