REMARK  13 active torsions:
REMARK  status: ('A' for Active; 'I' for Inactive)
REMARK    1  A    between atoms: C_2  and  C_3 
REMARK    2  A    between atoms: C_2  and  O_17 
REMARK    3  A    between atoms: B_7  and  O_19 
REMARK    4  A    between atoms: B_7  and  C_10 
REMARK    5  A    between atoms: B_7  and  O_18 
REMARK    6  A    between atoms: C_9  and  C_10 
REMARK    7  A    between atoms: C_10  and  N_13 
REMARK    8  A    between atoms: C_11  and  S_24 
REMARK    9  A    between atoms: C_11  and  C_12 
REMARK   10  A    between atoms: N_13  and  S_24 
REMARK   11  A    between atoms: O_19  and  P_23 
REMARK   12  A    between atoms: O_20  and  P_23 
REMARK   13  A    between atoms: O_21  and  P_23 
ROOT
HETATM    1  N   UNL     1      -0.713   0.543  -1.240  1.00  0.00    -0.318 N 
HETATM    2  H   UNL     1      -1.005   0.085  -2.044  1.00  0.00     0.171 HD
ENDROOT
BRANCH   1   3
HETATM    3  C   UNL     1      -1.695   0.947  -0.230  1.00  0.00     0.119 C 
BRANCH   3   4
HETATM    4  B   UNL     1      -2.903  -0.056  -0.244  1.00  0.00     0.526 B 
BRANCH   4   5
HETATM    5  O   UNL     1      -3.989   0.128   0.652  1.00  0.00    -0.333 OA
BRANCH   5   6
HETATM    6  P   UNL     1      -5.147  -0.982   0.514  1.00  0.00     0.375 P 
HETATM    7  O   UNL     1      -4.580  -2.322   0.783  1.00  0.00    -0.632 OA
BRANCH   6   8
HETATM    8  O   UNL     1      -6.317  -0.671   1.575  1.00  0.00    -0.308 OA
HETATM    9  H   UNL     1      -7.050  -1.301   1.548  1.00  0.00     0.222 HD
ENDBRANCH   6   8
BRANCH   6  10
HETATM   10  O   UNL     1      -5.751  -0.944  -0.978  1.00  0.00    -0.308 OA
HETATM   11  H   UNL     1      -6.140  -0.093  -1.224  1.00  0.00     0.222 HD
ENDBRANCH   6  10
ENDBRANCH   5   6
ENDBRANCH   4   5
BRANCH   4  12
HETATM   12  O   UNL     1      -2.910  -1.146  -1.154  1.00  0.00    -0.436 OA
HETATM   13  H   UNL     1      -3.694  -1.708  -1.089  1.00  0.00     0.184 HD
ENDBRANCH   4  12
ENDBRANCH   3   4
BRANCH   3  14
HETATM   14  C   UNL     1      -2.198   2.357  -0.544  1.00  0.00     0.017 C 
HETATM   15  C   UNL     1      -3.224   2.779   0.511  1.00  0.00     0.006 C 
ENDBRANCH   3  14
ENDBRANCH   1   3
BRANCH   1  16
HETATM   16  S   UNL     1       0.894   0.869  -1.009  1.00  0.00     0.230 S 
HETATM   17  O   UNL     1       0.929   2.255  -0.696  1.00  0.00    -0.206 OA
HETATM   18  O   UNL     1       1.525   0.366  -2.179  1.00  0.00    -0.206 OA
BRANCH  16  19
HETATM   19  C   UNL     1       1.354  -0.122   0.438  1.00  0.00     0.201 C 
BRANCH  19  20
HETATM   20  C   UNL     1       2.812   0.092   0.752  1.00  0.00    -0.042 A 
HETATM   21  C   UNL     1       3.191   1.105   1.614  1.00  0.00     0.008 A 
HETATM   22  C   UNL     1       4.528   1.309   1.907  1.00  0.00     0.002 A 
HETATM   23  C   UNL     1       5.492   0.502   1.341  1.00  0.00     0.018 A 
HETATM   24  C   UNL     1       5.117  -0.519   0.465  1.00  0.00     0.038 A 
HETATM   25  C   UNL     1       3.766  -0.723   0.178  1.00  0.00     0.026 A 
BRANCH  24  26
HETATM   26  C   UNL     1       6.145  -1.388  -0.146  1.00  0.00     0.176 C 
HETATM   27  O   UNL     1       5.815  -2.275  -0.907  1.00  0.00    -0.646 OA
BRANCH  26  28
HETATM   28  O   UNL     1       7.447  -1.195   0.141  1.00  0.00    -0.773 OA
HETATM   29  H   UNL     1       8.082  -1.788  -0.283  1.00  0.00     0.167 HD
ENDBRANCH  26  28
ENDBRANCH  24  26
ENDBRANCH  19  20
ENDBRANCH  16  19
ENDBRANCH   1  16
TORSDOF 13
