REMARK  3 active torsions:
REMARK  status: ('A' for Active; 'I' for Inactive)
REMARK    1  A    between atoms: B_1  and  O_2 
REMARK    2  A    between atoms: B_1  and  O_3 
REMARK    3  A    between atoms: B_1  and  C_8 
ROOT
HETATM    1  C   UNL     1       1.199  -0.001  -1.972  1.00  0.00    -0.000 A 
HETATM    2  C   UNL     1       0.000   0.000  -2.661  1.00  0.00     0.000 A 
HETATM    3  C   UNL     1      -1.199   0.000  -1.972  1.00  0.00    -0.000 A 
HETATM    4  C   UNL     1      -1.205   0.000  -0.592  1.00  0.00     0.001 A 
HETATM    5  C   UNL     1       0.000   0.000   0.107  1.00  0.00    -0.032 A 
HETATM    6  C   UNL     1       1.205   0.004  -0.592  1.00  0.00     0.001 A 
ENDROOT
BRANCH   5   7
HETATM    7  B   UNL     1       0.000   0.000   1.677  1.00  0.00     0.529 B 
BRANCH   7   8
HETATM    8  O   UNL     1       1.229  -0.001   2.387  1.00  0.00    -0.433 OA
HETATM    9  H   UNL     1       1.008   0.000   3.328  1.00  0.00     0.185 HD
ENDBRANCH   7   8
BRANCH   7  10
HETATM   10  O   UNL     1      -1.229   0.000   2.387  1.00  0.00    -0.433 OA
HETATM   11  H   UNL     1      -1.008   0.000   3.328  1.00  0.00     0.185 HD
ENDBRANCH   7  10
ENDBRANCH   5   7
TORSDOF 3
