REMARK  7 active torsions:
REMARK  status: ('A' for Active; 'I' for Inactive)
REMARK    1  A    between atoms: C_2  and  CA_13 
REMARK    2  A    between atoms: CA_4  and  C_5 
REMARK    3  A    between atoms: C_5  and  O_6 
REMARK    4  A    between atoms: C_12  and  CA_13 
REMARK    5  A    between atoms: CA_13  and  N_14 
REMARK       I    between atoms: N_14  and  C_15 
REMARK    6  A    between atoms: C_15  and  C_17 
REMARK    7  A    between atoms: C_17  and  C_18 
ROOT
HETATM    1  CA  UNL     1      -1.161  -0.835   0.222  1.00  0.00     0.189 C 
ENDROOT
BRANCH   1   2
HETATM    2  C   UNL     1      -2.652  -0.617   0.224  1.00  0.00     0.259 C 
HETATM    3  O   UNL     1      -3.127   0.310  -0.385  1.00  0.00    -0.305 OA
ENDBRANCH   1   2
BRANCH   1   4
HETATM    4  C   UNL     1      -0.634  -0.767   1.657  1.00  0.00     0.312 C 
HETATM    5  N   UNL     1      -0.735   0.615   2.210  1.00  0.00     0.116 N 
HETATM    6  CA  UNL     1       0.189   0.839   3.325  1.00  0.00     0.336 C 
HETATM    7  H   UNL     1      -1.667   0.710   2.584  1.00  0.00     0.318 HD
HETATM    8  C   UNL     1       1.511   0.048   3.207  1.00  0.00     0.044 C 
HETATM    9  C   UNL     1       1.736  -0.828   4.441  1.00  0.00     0.029 C 
HETATM   10  C   UNL     1       2.696   0.990   2.985  1.00  0.00     0.029 C 
HETATM   11  S   UNL     1       1.200  -0.985   1.712  1.00  0.00    -0.119 SA
BRANCH   6  12
HETATM   12  C   UNL     1      -0.494   0.438   4.606  1.00  0.00     0.175 C 
HETATM   13  OXT UNL     1      -1.346  -0.418   4.593  1.00  0.00    -0.648 OA
BRANCH  12  14
HETATM   14  O   UNL     1      -0.158   1.033   5.761  1.00  0.00    -0.775 OA
HETATM   15  H   UNL     1      -0.597   0.776   6.583  1.00  0.00     0.167 HD
ENDBRANCH  12  14
ENDBRANCH   6  12
ENDBRANCH   1   4
BRANCH   1  16
HETATM   16  N   UNL     1      -0.516   0.204  -0.584  1.00  0.00    -0.347 N 
HETATM   17  C   UNL     1      -0.319   0.008  -1.903  1.00  0.00     0.222 C 
HETATM   18  O   UNL     1      -0.676  -1.028  -2.422  1.00  0.00    -0.273 OA
HETATM   19  H   UNL     1      -0.231   1.033  -0.169  1.00  0.00     0.163 HD
BRANCH  17  20
HETATM   20  C   UNL     1       0.342   1.077  -2.732  1.00  0.00     0.141 C 
BRANCH  20  21
HETATM   21  C   UNL     1       0.442   0.614  -4.163  1.00  0.00    -0.050 A 
HETATM   22  C   UNL     1      -0.581   0.885  -5.050  1.00  0.00     0.007 A 
HETATM   23  C   UNL     1      -0.490   0.459  -6.362  1.00  0.00     0.001 A 
HETATM   24  C   UNL     1       0.626  -0.236  -6.787  1.00  0.00     0.000 A 
HETATM   25  C   UNL     1       1.650  -0.506  -5.900  1.00  0.00     0.001 A 
HETATM   26  C   UNL     1       1.561  -0.077  -4.589  1.00  0.00     0.007 A 
ENDBRANCH  20  21
ENDBRANCH  17  20
ENDBRANCH   1  16
TORSDOF 7
