REMARK  8 active torsions:
REMARK  status: ('A' for Active; 'I' for Inactive)
REMARK    1  A    between atoms: P_1  and  O_2 
REMARK    2  A    between atoms: P_1  and  O_3 
REMARK    3  A    between atoms: P_1  and  C_4 
REMARK    4  A    between atoms: C_4  and  N_5 
REMARK       I    between atoms: N_5  and  C_6 
REMARK    5  A    between atoms: C_6  and  C_8 
REMARK    6  A    between atoms: C_8  and  C_12 
REMARK    7  A    between atoms: N_9  and  O_10 
REMARK    8  A    between atoms: C_15  and  N_16 
ROOT
HETATM    1  C   UNL     1      -1.136  -1.173   0.093  1.00  0.00     0.180 C 
HETATM    2  N   UNL     1      -1.673  -2.341  -0.124  1.00  0.00    -0.126 NA
ENDROOT
BRANCH   1   3
HETATM    3  C   UNL     1       0.303  -1.071   0.433  1.00  0.00     0.275 C 
HETATM    4  N   UNL     1       0.833   0.123   0.763  1.00  0.00    -0.344 N 
HETATM    5  H   UNL     1       0.294   0.927   0.704  1.00  0.00     0.163 HD
HETATM    6  O   UNL     1       1.004  -2.063   0.414  1.00  0.00    -0.266 OA
BRANCH   4   7
HETATM    7  C   UNL     1       2.226   0.207   1.211  1.00  0.00     0.247 C 
BRANCH   7   8
HETATM    8  P   UNL     1       3.297   0.613  -0.208  1.00  0.00     0.253 P 
HETATM    9  O   UNL     1       3.082  -0.377  -1.287  1.00  0.00    -0.652 OA
BRANCH   8  10
HETATM   10  O   UNL     1       2.934   2.085  -0.750  1.00  0.00    -0.328 OA
HETATM   11  H   UNL     1       3.052   2.786  -0.094  1.00  0.00     0.220 HD
ENDBRANCH   8  10
BRANCH   8  12
HETATM   12  O   UNL     1       4.838   0.576   0.256  1.00  0.00    -0.328 OA
HETATM   13  H   UNL     1       5.466   0.783  -0.450  1.00  0.00     0.220 HD
ENDBRANCH   8  12
ENDBRANCH   7   8
ENDBRANCH   4   7
ENDBRANCH   1   3
BRANCH   1  14
HETATM   14  C   UNL     1      -1.963   0.049  -0.001  1.00  0.00     0.102 A 
HETATM   15  C   UNL     1      -3.247   0.023  -0.409  1.00  0.00     0.087 A 
HETATM   16  S   UNL     1      -3.870   1.671  -0.379  1.00  0.00    -0.062 SA
HETATM   17  C   UNL     1      -2.310   2.254   0.193  1.00  0.00     0.164 A 
HETATM   18  N   UNL     1      -1.493   1.256   0.319  1.00  0.00    -0.222 NA
BRANCH  17  19
HETATM   19  N   UNL     1      -2.004   3.576   0.471  1.00  0.00    -0.378 N 
HETATM   20  H   UNL     1      -2.677   4.265   0.353  1.00  0.00     0.158 HD
HETATM   21  H   UNL     1      -1.117   3.813   0.784  1.00  0.00     0.158 HD
ENDBRANCH  17  19
ENDBRANCH   1  14
BRANCH   2  22
HETATM   22  O   UNL     1      -0.911  -3.518   0.074  1.00  0.00    -0.261 OA
HETATM   23  C   UNL     1      -1.624  -4.725  -0.201  1.00  0.00     0.240 C 
ENDBRANCH   2  22
TORSDOF 8
