REMARK  7 active torsions:
REMARK  status: ('A' for Active; 'I' for Inactive)
REMARK    1  A    between atoms: C_2  and  O_13 
REMARK    2  A    between atoms: C_4  and  C_11 
REMARK    3  A    between atoms: C_4  and  O_9 
REMARK    4  A    between atoms: C_7  and  B_8 
REMARK    5  A    between atoms: B_8  and  O_10 
REMARK    6  A    between atoms: B_8  and  O_9 
REMARK    7  A    between atoms: C_11  and  O_12 
ROOT
HETATM    1  C   UNL     1      -0.431   1.374  -0.205  1.00  0.00     0.001 A 
HETATM    2  C   UNL     1      -2.746  -0.134   0.054  1.00  0.00     0.068 A 
HETATM    3  C   UNL     1      -1.664   1.995  -0.206  1.00  0.00     0.002 A 
HETATM    4  C   UNL     1      -2.819   1.247  -0.077  1.00  0.00     0.037 A 
HETATM    5  C   UNL     1      -1.514  -0.766   0.045  1.00  0.00     0.037 A 
HETATM    6  C   UNL     1      -0.349  -0.012  -0.079  1.00  0.00    -0.029 A 
ENDROOT
BRANCH   6   7
HETATM    7  B   UNL     1       1.051  -0.722  -0.091  1.00  0.00     0.531 B 
BRANCH   7   8
HETATM    8  O   UNL     1       1.132  -2.135   0.026  1.00  0.00    -0.433 OA
HETATM    9  H   UNL     1       0.273  -2.572   0.108  1.00  0.00     0.185 HD
ENDBRANCH   7   8
BRANCH   7  10
HETATM   10  O   UNL     1       2.237   0.049  -0.218  1.00  0.00    -0.421 OA
BRANCH  10  11
HETATM   11  C   UNL     1       3.437  -0.726  -0.213  1.00  0.00     0.171 C 
BRANCH  11  12
HETATM   12  C   UNL     1       4.645   0.203  -0.355  1.00  0.00     0.188 C 
BRANCH  12  13
HETATM   13  O   UNL     1       4.735   1.046   0.796  1.00  0.00    -0.399 OA
HETATM   14  H   UNL     1       5.479   1.662   0.774  1.00  0.00     0.209 HD
ENDBRANCH  12  13
ENDBRANCH  11  12
ENDBRANCH  10  11
ENDBRANCH   7  10
ENDBRANCH   6   7
BRANCH   2  15
HETATM   15  O   UNL     1      -3.885  -0.865   0.180  1.00  0.00    -0.356 OA
HETATM   16  C   UNL     1      -5.121  -0.149   0.170  1.00  0.00     0.210 C 
ENDBRANCH   2  15
TORSDOF 7
