REMARK  8 active torsions:
REMARK  status: ('A' for Active; 'I' for Inactive)
REMARK    1  A    between atoms: S_1  and  N_5 
REMARK    2  A    between atoms: S_1  and  O_3 
REMARK    3  A    between atoms: N_5  and  C_6 
REMARK       I    between atoms: N_9  and  C_13 
REMARK    4  A    between atoms: C_10  and  C_11 
REMARK       I    between atoms: C_13  and  N_15 
REMARK    5  A    between atoms: N_15  and  C_16 
REMARK    6  A    between atoms: N_20  and  C_21 
REMARK    7  A    between atoms: C_21  and  C_22 
REMARK    8  A    between atoms: C_22  and  N_23 
ROOT
HETATM    1  C   UNL     1      -3.517   0.387   0.781  1.00  0.00     0.125 C 
HETATM    2  C   UNL     1      -2.971   1.837   0.711  1.00  0.00     0.048 C 
HETATM    3  C   UNL     1      -1.596   1.619   0.031  1.00  0.00     0.131 C 
HETATM    4  N   UNL     1      -1.098   0.347   0.586  1.00  0.00    -0.321 N 
HETATM    5  C   UNL     1      -2.246  -0.449   1.044  1.00  0.00     0.173 C 
HETATM    6  C   UNL     1       0.195  -0.024   0.661  1.00  0.00     0.319 C 
HETATM    7  O   UNL     1       0.491  -1.102   1.140  1.00  0.00    -0.247 OA
HETATM    8  N   UNL     1       1.160   0.798   0.204  1.00  0.00    -0.338 N 
HETATM    9  H   UNL     1       0.924   1.658  -0.178  1.00  0.00     0.164 HD
ENDROOT
BRANCH   8  10
HETATM   10  C   UNL     1       2.566   0.394   0.285  1.00  0.00     0.087 C 
HETATM   11  C   UNL     1       2.923  -0.434  -0.919  1.00  0.00     0.027 C 
HETATM   12  C   UNL     1       3.991  -1.506  -0.620  1.00  0.00     0.032 C 
HETATM   13  C   UNL     1       5.118  -0.972   0.285  1.00  0.00     0.272 C 
HETATM   14  N   UNL     1       5.512   0.367  -0.078  1.00  0.00     0.090 N 
HETATM   15  C   UNL     1       4.809   1.339   0.785  1.00  0.00     0.274 C 
HETATM   16  C   UNL     1       3.465   1.650   0.312  1.00  0.00     0.055 C 
BRANCH  14  17
HETATM   17  C   UNL     1       6.969   0.532   0.022  1.00  0.00     0.302 C 
BRANCH  17  18
HETATM   18  C   UNL     1       7.655  -0.346  -1.027  1.00  0.00     0.296 C 
BRANCH  18  19
HETATM   19  N   UNL     1       9.111  -0.181  -0.927  1.00  0.00     0.080 N 
HETATM   20  H   UNL     1       9.435  -0.388   0.006  1.00  0.00     0.312 HD
HETATM   21  H   UNL     1       9.587  -0.752  -1.609  1.00  0.00     0.312 HD
ENDBRANCH  18  19
ENDBRANCH  17  18
ENDBRANCH  14  17
ENDBRANCH   8  10
BRANCH   5  22
HETATM   22  C   UNL     1      -2.314  -1.741   0.273  1.00  0.00     0.258 C 
HETATM   23  O   UNL     1      -2.374  -2.794   0.862  1.00  0.00    -0.305 OA
ENDBRANCH   5  22
BRANCH   1  24
HETATM   24  N   UNL     1      -4.135   0.003  -0.490  1.00  0.00    -0.300 N 
HETATM   25  H   UNL     1      -3.579  -0.259  -1.240  1.00  0.00     0.174 HD
BRANCH  24  26
HETATM   26  S   UNL     1      -5.784   0.017  -0.647  1.00  0.00     0.195 S 
HETATM   27  O   UNL     1      -6.063  -0.365  -1.987  1.00  0.00    -0.585 OA
HETATM   28  O   UNL     1      -6.300  -0.674   0.482  1.00  0.00    -0.585 OA
BRANCH  26  29
HETATM   29  O   UNL     1      -6.237   1.464  -0.509  1.00  0.00    -0.279 OA
HETATM   30  H   UNL     1      -7.194   1.585  -0.586  1.00  0.00     0.234 HD
ENDBRANCH  26  29
ENDBRANCH  24  26
ENDBRANCH   1  24
TORSDOF 8
