REMARK  9 active torsions:
REMARK  status: ('A' for Active; 'I' for Inactive)
REMARK    1  A    between atoms: S_1  and  C_4 
REMARK    2  A    between atoms: C_4  and  CA_5 
REMARK    3  A    between atoms: C_4  and  C_9 
REMARK    4  A    between atoms: CA_5  and  N_6 
REMARK    5  A    between atoms: CA_5  and  C_15 
REMARK    6  A    between atoms: N_6  and  C_7 
REMARK    7  A    between atoms: C_9  and  N_10 
REMARK    8  A    between atoms: C_15  and  O_16 
REMARK    9  A    between atoms: C_18  and  C_19 
ROOT
HETATM    1  C   UNL     1      -4.729   4.302   1.752  1.00  0.00     0.105 C 
HETATM    2  C   UNL     1      -5.813   3.323   2.240  1.00  0.00     0.036 C 
ENDROOT
BRANCH   1   3
HETATM    3  S   UNL     1      -5.136   5.919   2.463  1.00  0.00     0.150 S 
HETATM    4  O   UNL     1      -4.043   6.795   2.144  1.00  0.00    -0.230 OA
HETATM    5  O   UNL     1      -6.500   6.193   2.106  1.00  0.00    -0.230 OA
HETATM    6  H   UNL     1      -5.108   5.719   3.782  1.00  0.00     0.172 HD
ENDBRANCH   1   3
BRANCH   1   7
HETATM    7  CA  UNL     1      -3.337   3.879   2.321  1.00  0.00     0.204 C 
BRANCH   7   8
HETATM    8  N   UNL     1      -2.288   4.773   1.861  1.00  0.00    -0.383 N 
HETATM    9  H   UNL     1      -2.530   5.548   1.251  1.00  0.00     0.159 HD
BRANCH   8  10
HETATM   10  C   UNL     1      -1.019   4.615   2.209  1.00  0.00     0.087 C 
HETATM   11  C   UNL     1       0.019   5.374   1.846  1.00  0.00     0.058 C 
BRANCH  11  12
HETATM   12  C   UNL     1      -0.212   6.531   0.960  1.00  0.00     0.260 C 
HETATM   13  O   UNL     1       0.702   7.261   0.596  1.00  0.00    -0.302 OA
ENDBRANCH  11  12
ENDBRANCH   8  10
ENDBRANCH   7   8
BRANCH   7  14
HETATM   14  C   UNL     1      -3.274   3.864   3.842  1.00  0.00     0.165 C 
HETATM   15  OXT UNL     1      -2.996   4.832   4.539  1.00  0.00    -0.648 OA
BRANCH  14  16
HETATM   16  O   UNL     1      -3.566   2.645   4.364  1.00  0.00    -0.775 OA
HETATM   17  H   UNL     1      -3.540   2.587   5.343  1.00  0.00     0.167 HD
ENDBRANCH  14  16
ENDBRANCH   7  14
ENDBRANCH   1   7
BRANCH   1  18
HETATM   18  C   UNL     1      -4.700   4.404   0.198  1.00  0.00     0.173 C 
BRANCH  18  19
HETATM   19  N   UNL     1      -4.406   3.174  -0.537  1.00  0.00    -0.282 N 
HETATM   20  N   UNL     1      -3.146   2.865  -0.838  1.00  0.00     0.004 NA
HETATM   21  N   UNL     1      -3.189   1.714  -1.499  1.00  0.00    -0.171 NA
HETATM   22  C   UNL     1      -4.498   1.331  -1.593  1.00  0.00     0.154 A 
HETATM   23  C   UNL     1      -5.296   2.263  -0.979  1.00  0.00     0.128 A 
ENDBRANCH  18  19
ENDBRANCH   1  18
TORSDOF 9
