REMARK  12 active torsions:
REMARK  status: ('A' for Active; 'I' for Inactive)
REMARK    1  A    between atoms: C_5  and  C_6 
REMARK    2  A    between atoms: C_9  and  C_28 
REMARK    3  A    between atoms: C_10  and  C_31 
REMARK    4  A    between atoms: CA_11  and  C_12 
REMARK    5  A    between atoms: CA_11  and  C_14 
REMARK    6  A    between atoms: CA_11  and  N_23 
REMARK    7  A    between atoms: C_14  and  OXT_32 
REMARK    8  A    between atoms: CA_18  and  C_19 
REMARK    9  A    between atoms: C_19  and  OXT_21 
REMARK       I    between atoms: N_23  and  C_24 
REMARK   10  A    between atoms: C_24  and  C_26 
REMARK   11  A    between atoms: C_26  and  C_27 
REMARK   12  A    between atoms: C_27  and  C_28 
ROOT
HETATM    1  N   UNL     1       6.159   2.796 -13.062  1.00  0.00    -0.344 N 
HETATM    2  C   UNL     1       7.479   2.732 -12.931  1.00  0.00     0.218 C 
HETATM    3  O   UNL     1       8.261   2.311 -13.756  1.00  0.00    -0.274 OA
HETATM    4  H   UNL     1       5.658   3.173 -12.283  1.00  0.00     0.163 HD
ENDROOT
BRANCH   1   5
HETATM    5  CA  UNL     1       5.368   2.392 -14.181  1.00  0.00     0.217 C 
BRANCH   5   6
HETATM    6  C   UNL     1       5.072   0.962 -14.459  1.00  0.00     0.203 C 
HETATM    7  S   UNL     1       6.204  -0.306 -13.903  1.00  0.00    -0.134 SA
HETATM    8  C   UNL     1       5.281  -1.447 -12.901  1.00  0.00     0.116 C 
HETATM    9  C   UNL     1       4.103  -0.774 -12.187  1.00  0.00    -0.023 C 
HETATM   10  C   UNL     1       3.814  -1.236 -10.787  1.00  0.00     0.022 C 
HETATM   11  CA  UNL     1       3.327   0.152 -12.801  1.00  0.00     0.132 C 
HETATM   12  N   UNL     1       3.733   0.895 -13.847  1.00  0.00    -0.264 NA
BRANCH  11  13
HETATM   13  C   UNL     1       1.906   0.352 -12.403  1.00  0.00     0.195 C 
HETATM   14  O   UNL     1       1.592   0.738 -11.274  1.00  0.00    -0.645 OA
BRANCH  13  15
HETATM   15  OXT UNL     1       1.000   0.138 -13.232  1.00  0.00    -0.772 OA
HETATM   16  HXT UNL     1       0.157   0.319 -12.834  1.00  0.00     0.167 HD
ENDBRANCH  13  15
ENDBRANCH  11  13
ENDBRANCH   5   6
BRANCH   5  17
HETATM   17  C   UNL     1       4.298   3.270 -14.572  1.00  0.00     0.166 C 
HETATM   18  O   UNL     1       3.698   3.729 -13.554  1.00  0.00    -0.648 OA
BRANCH  17  19
HETATM   19  OXT UNL     1       3.669   3.199 -15.759  1.00  0.00    -0.775 OA
HETATM   20  HXT UNL     1       2.783   3.530 -15.669  1.00  0.00     0.167 HD
ENDBRANCH  17  19
ENDBRANCH   5  17
ENDBRANCH   1   5
BRANCH   2  21
HETATM   21  C   UNL     1       7.929   3.271 -11.603  1.00  0.00     0.110 C 
BRANCH  21  22
HETATM   22  C   UNL     1       9.430   3.415 -11.556  1.00  0.00     0.088 C 
BRANCH  22  23
HETATM   23  C   UNL     1       9.652   4.365 -10.407  1.00  0.00     0.139 C 
HETATM   24  O   UNL     1       9.144   4.209  -9.304  1.00  0.00    -0.297 OA
BRANCH  23  25
HETATM   25  C   UNL     1      10.539   5.529 -10.690  1.00  0.00     0.057 A 
HETATM   26  C   UNL     1      11.035   6.419  -9.743  1.00  0.00     0.007 A 
HETATM   27  C   UNL     1      11.877   7.339 -10.376  1.00  0.00     0.000 A 
HETATM   28 RU   UNL     1      12.707   5.308 -10.616  1.00  0.00     0.000 Ru
HETATM   29  C   UNL     1      11.900   7.028 -11.736  1.00  0.00     0.000 A 
HETATM   30  C   UNL     1      14.814   5.118  -9.953  1.00  0.00     0.000 A 
HETATM   31  C   UNL     1      14.618   4.332 -11.069  1.00  0.00     0.000 A 
HETATM   32  C   UNL     1      13.693   3.347 -10.752  1.00  0.00     0.000 A 
HETATM   33  C   UNL     1      13.305   3.535  -9.453  1.00  0.00     0.000 A 
HETATM   34  C   UNL     1      13.990   4.610  -8.948  1.00  0.00     0.000 A 
HETATM   35  C   UNL     1      11.080   5.929 -11.934  1.00  0.00     0.007 A 
ENDBRANCH  23  25
ENDBRANCH  22  23
ENDBRANCH  21  22
ENDBRANCH   2  21
TORSDOF 12
