REMARK  9 active torsions:
REMARK  status: ('A' for Active; 'I' for Inactive)
REMARK    1  A    between atoms: C_1  and  C_3 
REMARK    2  A    between atoms: C_3  and  C_4 
REMARK    3  A    between atoms: C_3  and  C_7 
REMARK    4  A    between atoms: C_4  and  O_5 
REMARK    5  A    between atoms: CA_11  and  C_12 
REMARK    6  A    between atoms: C_12  and  OXT_13 
REMARK    7  A    between atoms: C_15  and  S_16 
REMARK    8  A    between atoms: S_16  and  C_17 
REMARK    9  A    between atoms: N_19  and  C_21 
ROOT
HETATM    1  C   UNL     1       2.842   0.411   0.909  1.00  0.00     0.103 A 
HETATM    2  C   UNL     1       1.325   0.533   0.680  1.00  0.00     0.047 A 
HETATM    3  C   UNL     1       1.022   1.669  -0.298  1.00  0.00     0.017 C 
HETATM    4  N   UNL     1       3.181  -0.940   0.440  1.00  0.00    -0.378 N 
HETATM    5  CA  UNL     1       2.016  -1.575  -0.021  1.00  0.00     0.116 A 
HETATM    6  C   UNL     1       0.922  -0.797   0.085  1.00  0.00     0.018 A 
HETATM    7  H   UNL     1       4.068  -1.331   0.448  1.00  0.00     0.160 HD
ENDROOT
BRANCH   6   8
HETATM    8  S   UNL     1      -0.711  -1.255  -0.392  1.00  0.00    -0.123 SA
BRANCH   8   9
HETATM    9  C   UNL     1      -1.542  -1.170   1.214  1.00  0.00     0.088 C 
HETATM   10  C   UNL     1      -2.181   0.199   1.510  1.00  0.00     0.142 C 
HETATM   11  N   UNL     1      -3.400  -0.347   0.882  1.00  0.00    -0.358 N 
HETATM   12  C   UNL     1      -2.978  -1.725   1.198  1.00  0.00     0.142 C 
BRANCH  11  13
HETATM   13  C   UNL     1      -4.492   0.207   0.253  1.00  0.00     0.159 A 
HETATM   14  N   UNL     1      -5.477  -0.457  -0.235  1.00  0.00    -0.266 NA
HETATM   15  C   UNL     1      -6.570   0.241  -0.874  1.00  0.00     0.162 A 
HETATM   16  C   UNL     1      -6.345   1.761  -0.857  1.00  0.00     0.104 A 
HETATM   17  S   UNL     1      -4.748   1.938   0.004  1.00  0.00    -0.091 SA
ENDBRANCH  11  13
ENDBRANCH   8   9
ENDBRANCH   6   8
BRANCH   5  18
HETATM   18  C   UNL     1       1.995  -2.890  -0.541  1.00  0.00     0.194 C 
HETATM   19  O   UNL     1       0.934  -3.412  -0.834  1.00  0.00    -0.645 OA
BRANCH  18  20
HETATM   20  OXT UNL     1       3.150  -3.567  -0.714  1.00  0.00    -0.772 OA
HETATM   21  HXT UNL     1       3.035  -4.457  -1.074  1.00  0.00     0.167 HD
ENDBRANCH  18  20
ENDBRANCH   5  18
BRANCH   1  22
HETATM   22  C   UNL     1       3.591   1.463   0.089  1.00  0.00     0.099 C 
BRANCH  22  23
HETATM   23  C   UNL     1       3.351   1.221  -1.379  1.00  0.00     0.240 C 
HETATM   24  O   UNL     1       2.975   2.124  -2.087  1.00  0.00    -0.306 OA
ENDBRANCH  22  23
BRANCH  22  25
HETATM   25  C   UNL     1       5.089   1.368   0.383  1.00  0.00     0.126 C 
HETATM   26  C   UNL     1       5.838   2.420  -0.437  1.00  0.00     0.040 C 
BRANCH  25  27
HETATM   27  O   UNL     1       5.317   1.597   1.775  1.00  0.00    -0.395 OA
HETATM   28  H   UNL     1       5.020   2.464   2.084  1.00  0.00     0.210 HD
ENDBRANCH  25  27
ENDBRANCH  22  25
ENDBRANCH   1  22
TORSDOF 9
