REMARK  10 active torsions:
REMARK  status: ('A' for Active; 'I' for Inactive)
REMARK    1  A    between atoms: C_2  and  C_3 
REMARK    2  A    between atoms: C_3  and  N_16 
REMARK    3  A    between atoms: C_3  and  C_6 
REMARK    4  A    between atoms: C_3  and  O_4 
REMARK    5  A    between atoms: CA_11  and  C_12 
REMARK    6  A    between atoms: C_12  and  OXT_13 
REMARK       I    between atoms: N_16  and  C_17 
REMARK    7  A    between atoms: C_17  and  C_19 
REMARK    8  A    between atoms: C_19  and  C_23 
REMARK    9  A    between atoms: C_19  and  C_20 
REMARK   10  A    between atoms: C_20  and  O_22 
ROOT
HETATM    1  C   UNL     1      -0.560   0.698   0.508  1.00  0.00     0.231 C 
ENDROOT
BRANCH   1   2
HETATM    2  C   UNL     1      -0.531   0.282   1.957  1.00  0.00     0.295 C 
HETATM    3  O   UNL     1      -1.512  -0.206   2.464  1.00  0.00    -0.302 OA
ENDBRANCH   1   2
BRANCH   1   4
HETATM    4  N   UNL     1       0.463  -0.043  -0.233  1.00  0.00    -0.320 N 
HETATM    5  C   UNL     1       1.768   0.244  -0.052  1.00  0.00     0.239 C 
HETATM    6  O   UNL     1       2.100   1.048   0.793  1.00  0.00    -0.272 OA
HETATM    7  H   UNL     1       0.202  -0.741  -0.854  1.00  0.00     0.166 HD
BRANCH   5   8
HETATM    8  C   UNL     1       2.813  -0.434  -0.900  1.00  0.00     0.209 C 
BRANCH   8   9
HETATM    9  C   UNL     1       4.180   0.059  -0.501  1.00  0.00    -0.028 A 
HETATM   10  C   UNL     1       5.026   0.705  -1.385  1.00  0.00     0.016 A 
HETATM   11  C   UNL     1       6.198   1.081  -0.870  1.00  0.00     0.050 A 
HETATM   12  S   UNL     1       6.275   0.612   0.824  1.00  0.00    -0.113 SA
HETATM   13  C   UNL     1       4.664  -0.089   0.734  1.00  0.00     0.058 A 
ENDBRANCH   8   9
BRANCH   8  14
HETATM   14  C   UNL     1       2.737  -1.925  -0.694  1.00  0.00     0.157 C 
HETATM   15  O   UNL     1       1.918  -2.389   0.063  1.00  0.00    -0.649 OA
BRANCH  14  16
HETATM   16  O   UNL     1       3.579  -2.737  -1.352  1.00  0.00    -0.775 OA
HETATM   17  H   UNL     1       3.492  -3.686  -1.188  1.00  0.00     0.167 HD
ENDBRANCH  14  16
ENDBRANCH   8  14
ENDBRANCH   5   8
ENDBRANCH   1   4
BRANCH   1  18
HETATM   18  C   UNL     1      -1.938   0.394  -0.082  1.00  0.00     0.346 C 
HETATM   19  S   UNL     1      -2.336  -1.398   0.049  1.00  0.00    -0.116 SA
HETATM   20  C   UNL     1      -4.155  -1.151   0.098  1.00  0.00     0.044 C 
HETATM   21  C   UNL     1      -4.795  -2.048   1.160  1.00  0.00     0.029 C 
HETATM   22  CA  UNL     1      -4.307   0.333   0.479  1.00  0.00     0.336 C 
HETATM   23  C   UNL     1      -4.774  -1.420  -1.276  1.00  0.00     0.029 C 
HETATM   24  N   UNL     1      -3.022   0.986   0.751  1.00  0.00     0.119 N 
HETATM   25  H   UNL     1      -3.085   1.983   0.609  1.00  0.00     0.318 HD
BRANCH  22  26
HETATM   26  C   UNL     1      -4.990   1.059  -0.651  1.00  0.00     0.175 C 
HETATM   27  O   UNL     1      -4.338   1.707  -1.435  1.00  0.00    -0.648 OA
BRANCH  26  28
HETATM   28  OXT UNL     1      -6.323   0.984  -0.787  1.00  0.00    -0.775 OA
HETATM   29  HXT UNL     1      -6.717   1.467  -1.528  1.00  0.00     0.167 HD
ENDBRANCH  26  28
ENDBRANCH  22  26
ENDBRANCH   1  18
BRANCH   1  30
HETATM   30  O   UNL     1      -0.298   2.099   0.410  1.00  0.00    -0.357 OA
HETATM   31  C   UNL     1      -0.302   2.599  -0.929  1.00  0.00     0.205 C 
ENDBRANCH   1  30
TORSDOF 10
