REMARK  8 active torsions:
REMARK  status: ('A' for Active; 'I' for Inactive)
REMARK    1  A    between atoms: C_2  and  S_3 
REMARK    2  A    between atoms: C_2  and  CA_7 
REMARK    3  A    between atoms: S_3  and  O_4 
REMARK    4  A    between atoms: CA_7  and  C_8 
REMARK    5  A    between atoms: CA_7  and  N_11 
REMARK    6  A    between atoms: C_8  and  O_9 
REMARK    7  A    between atoms: N_11  and  C_12 
REMARK    8  A    between atoms: C_13  and  C_14 
ROOT
HETATM    1  CA  UNL     1       0.159   0.780  -0.628  1.00  0.00     0.202 C 
ENDROOT
BRANCH   1   2
HETATM    2  C   UNL     1       1.414  -0.065  -0.857  1.00  0.00     0.086 C 
HETATM    3  C   UNL     1       1.118  -1.143  -1.902  1.00  0.00     0.034 C 
HETATM    4  C   UNL     1       2.548   0.831  -1.357  1.00  0.00     0.034 C 
BRANCH   2   5
HETATM    5  S   UNL     1       1.906  -0.853   0.701  1.00  0.00     0.161 S 
HETATM    6  O   UNL     1       1.048  -1.953   0.967  1.00  0.00    -0.228 OA
BRANCH   5   7
HETATM    7  O   UNL     1       3.224  -1.525   0.343  1.00  0.00    -0.305 OA
HETATM    8  H   UNL     1       3.634  -2.002   1.078  1.00  0.00     0.230 HD
ENDBRANCH   5   7
ENDBRANCH   2   5
ENDBRANCH   1   2
BRANCH   1   9
HETATM    9  C   UNL     1       0.440   1.819   0.427  1.00  0.00     0.165 C 
HETATM   10  OXT UNL     1       0.173   1.593   1.584  1.00  0.00    -0.648 OA
BRANCH   9  11
HETATM   11  O   UNL     1       0.986   2.996   0.082  1.00  0.00    -0.775 OA
HETATM   12  H   UNL     1       1.148   3.630   0.793  1.00  0.00     0.167 HD
ENDBRANCH   9  11
ENDBRANCH   1   9
BRANCH   1  13
HETATM   13  N   UNL     1      -0.937  -0.084  -0.182  1.00  0.00    -0.384 N 
HETATM   14  H   UNL     1      -0.743  -0.923   0.263  1.00  0.00     0.159 HD
BRANCH  13  15
HETATM   15  C   UNL     1      -2.230   0.291  -0.394  1.00  0.00     0.087 C 
HETATM   16  C   UNL     1      -3.244  -0.508   0.018  1.00  0.00     0.058 C 
BRANCH  16  17
HETATM   17  C   UNL     1      -4.574  -0.122  -0.200  1.00  0.00     0.260 C 
HETATM   18  O   UNL     1      -5.483  -0.838   0.169  1.00  0.00    -0.302 OA
ENDBRANCH  16  17
ENDBRANCH  13  15
ENDBRANCH   1  13
TORSDOF 8
