REMARK  12 active torsions:
REMARK  status: ('A' for Active; 'I' for Inactive)
REMARK    1  A    between atoms: C_1  and  S_16 
REMARK    2  A    between atoms: CA_2  and  C_3 
REMARK    3  A    between atoms: C_3  and  OXT_12 
REMARK    4  A    between atoms: C_4  and  C_7 
REMARK    5  A    between atoms: C_7  and  C_10 
REMARK    6  A    between atoms: C_7  and  C_8 
REMARK    7  A    between atoms: C_8  and  O_14 
REMARK    8  A    between atoms: S_16  and  C_19 
REMARK    9  A    between atoms: C_21  and  C_25 
REMARK       I    between atoms: C_25  and  N_27 
REMARK   10  A    between atoms: N_27  and  C_28 
REMARK   11  A    between atoms: C_32  and  C_34 
REMARK   12  A    between atoms: C_34  and  O_36 
ROOT
HETATM    1  C   UNL     1       0.165  -0.310   0.052  1.00  0.00     0.078 C 
HETATM    2  C   UNL     1      -1.167  -0.218  -0.721  1.00  0.00     0.062 C 
HETATM    3  C   UNL     1      -2.124  -1.180   0.015  1.00  0.00     0.313 C 
HETATM    4  N   UNL     1      -1.571  -1.280   1.390  1.00  0.00     0.098 N 
HETATM    5  C   UNL     1      -0.099  -1.319   1.190  1.00  0.00     0.285 C 
HETATM    6  H   UNL     1      -1.838  -0.482   1.947  1.00  0.00     0.317 HD
ENDROOT
BRANCH   1   7
HETATM    7  S   UNL     1       1.484  -0.917  -1.036  1.00  0.00    -0.154 SA
BRANCH   7   8
HETATM    8  C   UNL     1       2.969  -0.756  -0.006  1.00  0.00     0.092 C 
HETATM    9  CA  UNL     1       4.196  -1.403  -0.691  1.00  0.00     0.220 C 
HETATM   10  N   UNL     1       5.320  -0.513  -0.378  1.00  0.00    -0.280 NA
HETATM   11  C   UNL     1       4.939   0.628   0.036  1.00  0.00     0.026 C 
HETATM   12  C   UNL     1       3.430   0.719   0.083  1.00  0.00     0.046 C 
HETATM   13  C   UNL     1       2.902   1.519  -1.110  1.00  0.00     0.017 C 
BRANCH   9  14
HETATM   14  C   UNL     1       4.445  -2.779  -0.129  1.00  0.00     0.166 C 
HETATM   15  O   UNL     1       5.231  -2.928   0.776  1.00  0.00    -0.648 OA
BRANCH  14  16
HETATM   16  OXT UNL     1       3.793  -3.838  -0.634  1.00  0.00    -0.775 OA
HETATM   17  HXT UNL     1       3.929  -4.688  -0.193  1.00  0.00     0.167 HD
ENDBRANCH  14  16
ENDBRANCH   9  14
BRANCH  11  18
HETATM   18  C   UNL     1       5.871   1.745   0.431  1.00  0.00     0.123 C 
BRANCH  18  19
HETATM   19  C   UNL     1       5.699   2.902  -0.519  1.00  0.00     0.244 C 
HETATM   20  O   UNL     1       5.352   3.980  -0.100  1.00  0.00    -0.306 OA
ENDBRANCH  18  19
BRANCH  18  21
HETATM   21  C   UNL     1       7.317   1.247   0.372  1.00  0.00     0.130 C 
HETATM   22  C   UNL     1       8.263   2.381   0.772  1.00  0.00     0.040 C 
BRANCH  21  23
HETATM   23  O   UNL     1       7.480   0.150   1.273  1.00  0.00    -0.395 OA
HETATM   24  H   UNL     1       7.290   0.367   2.195  1.00  0.00     0.210 HD
ENDBRANCH  21  23
ENDBRANCH  18  21
ENDBRANCH  11  18
ENDBRANCH   7   8
ENDBRANCH   1   7
BRANCH   3  25
HETATM   25  C   UNL     1      -3.519  -0.609   0.050  1.00  0.00     0.255 C 
HETATM   26  O   UNL     1      -3.922  -0.056   1.051  1.00  0.00    -0.271 OA
HETATM   27  N   UNL     1      -4.317  -0.714  -1.031  1.00  0.00    -0.325 N 
HETATM   28  H   UNL     1      -4.019  -1.214  -1.807  1.00  0.00     0.169 HD
BRANCH  27  29
HETATM   29  C   UNL     1      -5.575  -0.102  -1.033  1.00  0.00     0.035 A 
HETATM   30  C   UNL     1      -6.076   0.451  -2.205  1.00  0.00     0.029 A 
HETATM   31  C   UNL     1      -7.319   1.057  -2.213  1.00  0.00     0.003 A 
HETATM   32  C   UNL     1      -8.071   1.116  -1.058  1.00  0.00     0.018 A 
HETATM   33  C   UNL     1      -7.576   0.563   0.125  1.00  0.00     0.039 A 
HETATM   34  C   UNL     1      -6.324  -0.053   0.132  1.00  0.00     0.047 A 
BRANCH  33  35
HETATM   35  C   UNL     1      -8.379   0.625   1.365  1.00  0.00     0.176 C 
HETATM   36  O   UNL     1      -7.947   0.143   2.392  1.00  0.00    -0.646 OA
BRANCH  35  37
HETATM   37  O   UNL     1      -9.589   1.215   1.354  1.00  0.00    -0.773 OA
HETATM   38  H   UNL     1     -10.077   1.231   2.189  1.00  0.00     0.167 HD
ENDBRANCH  35  37
ENDBRANCH  33  35
ENDBRANCH  27  29
ENDBRANCH   3  25
TORSDOF 12
