REMARK  5 active torsions:
REMARK  status: ('A' for Active; 'I' for Inactive)
REMARK    1  A    between atoms: C_3  and  C_5 
REMARK    2  A    between atoms: C_5  and  O_7 
REMARK    3  A    between atoms: C_10  and  C_11 
REMARK    4  A    between atoms: C_11  and  O_13 
REMARK    5  A    between atoms: C_14  and  C_15 
ROOT
HETATM    1  S   UNK A   1      -0.679   3.987   1.679  1.00  0.00    -0.146 SA
HETATM    2  C   UNK A   1      -1.407   3.328   3.197  1.00  0.00     0.141 C 
HETATM    3  C   UNK A   1      -0.277   3.061   4.147  1.00  0.00     0.116 C 
HETATM    4  N   UNK A   1       0.546   2.065   4.115  1.00  0.00    -0.257 NA
HETATM    5  C   UNK A   0       0.379   1.107   3.153  1.00  0.00     0.132 C 
HETATM    6  C   UNK A   0       0.230   1.261   1.826  1.00  0.00     0.052 C 
HETATM    7  C   UNK A   0       0.145   2.507   0.973  1.00  0.00     0.142 C 
ENDROOT
BRANCH   7   8
HETATM    8  C   UNK A   0       1.485   2.887   0.380  1.00  0.00     0.072 A 
HETATM    9  C   UNK A   0       1.840   2.920  -0.960  1.00  0.00     0.128 A 
HETATM   10  N   UNK A   0       3.138   3.320  -0.944  1.00  0.00    -0.302 N 
HETATM   11  C   UNK A   0       3.494   3.506   0.364  1.00  0.00     0.178 A 
HETATM   12  C   UNK A   0       4.142   3.580  -1.829  1.00  0.00     0.031 A 
HETATM   13  N   UNK A   0       2.531   3.257   1.208  1.00  0.00    -0.226 NA
HETATM   14  S   UNK A   0       5.163   4.030   0.508  1.00  0.00    -0.054 SA
HETATM   15  C   UNK A   0       5.266   3.963  -1.221  1.00  0.00     0.009 A 
HETATM   16  C   UNK A   0       6.358   4.255  -2.166  1.00  0.00     0.048 C 
HETATM   17  C   UNK A   0       5.761   3.717  -3.490  1.00  0.00     0.011 C 
HETATM   18  C   UNK A   0       4.237   3.531  -3.295  1.00  0.00     0.059 C 
ENDBRANCH   7   8
BRANCH   6  19
HETATM   19  C   UNK A   0       0.122  -0.017   1.091  1.00  0.00     0.175 C 
HETATM   20  O   UNK A   0       1.069  -0.622   0.641  1.00  0.00    -0.646 OA
BRANCH  19  21
HETATM   21  O   UNK A   0      -1.173  -0.373   1.017  1.00  0.00    -0.773 OA
HETATM   22  H   UNK A   0      -1.285  -1.220   0.535  1.00  0.00     0.167 HD
ENDBRANCH  19  21
ENDBRANCH   6  19
BRANCH   3  23
HETATM   23  C   UNK A   1      -0.043   4.068   5.222  1.00  0.00     0.192 C 
HETATM   24  O   UNK A   1       0.687   5.016   5.096  1.00  0.00    -0.645 OA
BRANCH  23  25
HETATM   25  O   UNK A   1      -0.769   3.722   6.295  1.00  0.00    -0.772 OA
HETATM   26  H   UNK A   1      -0.641   4.363   7.026  1.00  0.00     0.167 HD
ENDBRANCH  23  25
ENDBRANCH   3  23
TORSDOF 5
