REMARK  7 active torsions:
REMARK  status: ('A' for Active; 'I' for Inactive)
REMARK    1  A    between atoms: C_2  and  C_4 
REMARK       I    between atoms: C_2  and  N_3 
REMARK    2  A    between atoms: C_8  and  N_13 
REMARK    3  A    between atoms: N_10  and  C_11 
REMARK    4  A    between atoms: N_13  and  O_14 
REMARK    5  A    between atoms: O_14  and  C_15 
REMARK    6  A    between atoms: C_15  and  C_17 
REMARK    7  A    between atoms: C_17  and  O_18 
ROOT
HETATM    1  C   UNL     1      -2.204   0.647   0.626  1.00  0.00     0.202 C 
HETATM    2  C   UNL     1      -1.327   1.400  -0.336  1.00  0.00     0.012 C 
HETATM    3  C   UNL     1      -0.452   0.832  -1.104  1.00  0.00    -0.064 C 
HETATM    4  C   UNL     1       0.370   1.718  -2.004  1.00  0.00     0.045 C 
HETATM    5  C   UNL     1      -0.199  -0.645  -1.160  1.00  0.00     0.129 C 
HETATM    6  C   UNL     1      -0.742  -1.328   0.098  1.00  0.00     0.152 C 
HETATM    7  N   UNL     1      -2.090  -0.793   0.357  1.00  0.00    -0.341 N 
ENDROOT
BRANCH   5   8
HETATM    8  N   UNL     1       1.247  -0.887  -1.258  1.00  0.00    -0.192 NA
HETATM    9  H   UNL     1       1.443  -1.871  -1.362  1.00  0.00     0.154 HD
BRANCH   8  10
HETATM   10  O   UNL     1       1.951  -0.331  -0.101  1.00  0.00    -0.257 OA
BRANCH  10  11
HETATM   11  C   UNL     1       3.366  -0.531  -0.131  1.00  0.00     0.424 C 
HETATM   12  F   UNL     1       3.679  -1.740   0.498  1.00  0.00    -0.206 F 
BRANCH  11  13
HETATM   13  C   UNL     1       4.048   0.603   0.590  1.00  0.00     0.204 C 
HETATM   14  O   UNL     1       3.741   0.867   1.728  1.00  0.00    -0.646 OA
BRANCH  13  15
HETATM   15  O   UNL     1       4.997   1.319  -0.033  1.00  0.00    -0.773 OA
HETATM   16  H   UNL     1       5.406   2.037   0.470  1.00  0.00     0.167 HD
ENDBRANCH  13  15
ENDBRANCH  11  13
ENDBRANCH  10  11
ENDBRANCH   8  10
ENDBRANCH   5   8
BRANCH   7  17
HETATM   17  C   UNL     1      -3.176  -1.592   0.347  1.00  0.00     0.351 C 
HETATM   18  O   UNL     1      -3.046  -2.790   0.207  1.00  0.00    -0.284 OA
ENDBRANCH   7  17
BRANCH   1  19
HETATM   19  C   UNL     1      -3.635   1.082   0.448  1.00  0.00     0.242 C 
HETATM   20  O   UNL     1      -4.300   0.625  -0.458  1.00  0.00    -0.271 OA
HETATM   21  N   UNL     1      -4.179   1.975   1.299  1.00  0.00    -0.368 N 
HETATM   22  H   UNL     1      -5.102   2.251   1.187  1.00  0.00     0.159 HD
HETATM   23  H   UNL     1      -3.648   2.340   2.023  1.00  0.00     0.159 HD
ENDBRANCH   1  19
TORSDOF 7
