REMARK  5 active torsions:
REMARK  status: ('A' for Active; 'I' for Inactive)
REMARK    1  A    between atoms: C_1  and  CA_4 
REMARK    2  A    between atoms: N_2  and  CA_4 
REMARK    3  A    between atoms: CA_4  and  C_5 
REMARK    4  A    between atoms: O_8  and  C_12 
REMARK    5  A    between atoms: C_12  and  CA_13 
ROOT
HETATM    1  C   UNL     1       0.806   0.734  -0.300  1.00  0.00     0.323 C 
HETATM    2  C   UNL     1      -2.121  -1.086  -1.242  1.00  0.00     0.029 C 
HETATM    3  C   UNL     1      -1.325  -2.441   0.721  1.00  0.00     0.029 C 
HETATM    4  N   UNL     1       0.002   0.830   0.950  1.00  0.00     0.116 N 
HETATM    5  S   UNL     1       0.601  -1.049  -0.711  1.00  0.00    -0.119 SA
HETATM    6  CA  UNL     1      -1.253   0.082   0.825  1.00  0.00     0.336 C 
HETATM    7  C   UNL     1      -1.123  -1.156  -0.085  1.00  0.00     0.044 C 
HETATM    8  H   UNL     1       0.533   0.514   1.748  1.00  0.00     0.318 HD
ENDROOT
BRANCH   1   9
HETATM    9  CA  UNL     1       2.275   1.074  -0.038  1.00  0.00     0.321 C 
BRANCH   9  10
HETATM   10  C   UNL     1       2.816   0.167   1.037  1.00  0.00     0.269 C 
HETATM   11  O   UNL     1       3.747  -0.564   0.798  1.00  0.00    -0.304 OA
ENDBRANCH   9  10
BRANCH   9  12
HETATM   12  N   UNL     1       3.049   0.886  -1.272  1.00  0.00     0.092 N 
HETATM   13  H1  UNL     1       2.990  -0.069  -1.594  1.00  0.00     0.313 HD
HETATM   14  H2  UNL     1       2.747   1.528  -1.989  1.00  0.00     0.313 HD
ENDBRANCH   9  12
ENDBRANCH   1   9
BRANCH   6  15
HETATM   15  C   UNL     1      -2.308   0.995   0.255  1.00  0.00     0.175 C 
HETATM   16  OXT UNL     1      -1.985   2.007  -0.320  1.00  0.00    -0.648 OA
BRANCH  15  17
HETATM   17  O   UNL     1      -3.607   0.682   0.385  1.00  0.00    -0.775 OA
HETATM   18  H   UNL     1      -4.247   1.298   0.003  1.00  0.00     0.167 HD
ENDBRANCH  15  17
ENDBRANCH   6  15
TORSDOF 5
