REMARK  11 active torsions:
REMARK  status: ('A' for Active; 'I' for Inactive)
REMARK    1  A    between atoms: OXT_2  and  C_22 
REMARK    2  A    between atoms: O_6  and  C_28 
REMARK    3  A    between atoms: C_12  and  CA_29 
REMARK    4  A    between atoms: C_13  and  S_20 
REMARK    5  A    between atoms: C_13  and  C_24 
REMARK       I    between atoms: N_18  and  C_23 
REMARK    6  A    between atoms: N_18  and  CA_29 
REMARK    7  A    between atoms: S_20  and  C_27 
REMARK    8  A    between atoms: C_22  and  CA_25 
REMARK    9  A    between atoms: C_23  and  C_28 
REMARK   10  A    between atoms: C_26  and  C_28 
REMARK   11  A    between atoms: CA_29  and  C_30 
ROOT
HETATM    1  C   UNL     1      -1.095   0.136  -1.500  1.00  0.00     0.113 C 
HETATM    2  N   UNL     1      -0.128  -1.650   0.750  1.00  0.00    -0.368 N 
HETATM    3  S   UNL     1       0.558  -0.616  -1.601  1.00  0.00    -0.137 SA
HETATM    4  C   UNL     1      -1.925  -0.616  -0.500  1.00  0.00    -0.028 C 
HETATM    5  CA  UNL     1      -1.459  -1.375   0.465  1.00  0.00     0.107 C 
HETATM    6  C   UNL     1       0.952  -0.843   0.164  1.00  0.00     0.173 C 
HETATM    7  H   UNL     1       0.092  -2.385   1.344  1.00  0.00     0.161 HD
ENDROOT
BRANCH   6   8
HETATM    8  CA  UNL     1       2.288  -1.576   0.309  1.00  0.00     0.178 C 
BRANCH   8   9
HETATM    9  C   UNL     1       2.214  -2.901  -0.405  1.00  0.00     0.259 C 
HETATM   10  O   UNL     1       2.976  -3.142  -1.310  1.00  0.00    -0.305 OA
ENDBRANCH   8   9
BRANCH   8  11
HETATM   11  N   UNL     1       3.357  -0.764  -0.277  1.00  0.00    -0.345 N 
HETATM   12  C   UNL     1       4.627  -0.916   0.146  1.00  0.00     0.251 C 
HETATM   13  O   UNL     1       4.886  -1.725   1.011  1.00  0.00    -0.270 OA
HETATM   14  H   UNL     1       3.150  -0.117  -0.970  1.00  0.00     0.163 HD
BRANCH  12  15
HETATM   15  C   UNL     1       5.727  -0.081  -0.458  1.00  0.00     0.243 C 
BRANCH  15  16
HETATM   16  O   UNL     1       6.988  -0.504   0.066  1.00  0.00    -0.381 OA
HETATM   17  H   UNL     1       7.062  -0.422   1.026  1.00  0.00     0.211 HD
ENDBRANCH  15  16
BRANCH  15  18
HETATM   18  C   UNL     1       5.502   1.369  -0.116  1.00  0.00    -0.021 A 
HETATM   19  C   UNL     1       4.838   2.194  -1.004  1.00  0.00     0.010 A 
HETATM   20  C   UNL     1       4.631   3.524  -0.690  1.00  0.00     0.001 A 
HETATM   21  C   UNL     1       5.086   4.029   0.513  1.00  0.00     0.000 A 
HETATM   22  C   UNL     1       5.751   3.205   1.402  1.00  0.00     0.001 A 
HETATM   23  C   UNL     1       5.958   1.875   1.087  1.00  0.00     0.010 A 
ENDBRANCH  15  18
ENDBRANCH  12  15
ENDBRANCH   8  11
ENDBRANCH   6   8
BRANCH   5  24
HETATM   24  C   UNL     1      -2.461  -2.004   1.345  1.00  0.00     0.193 C 
HETATM   25  O   UNL     1      -2.804  -1.449   2.370  1.00  0.00    -0.645 OA
BRANCH  24  26
HETATM   26  OXT UNL     1      -2.998  -3.195   1.012  1.00  0.00    -0.772 OA
HETATM   27  HXT UNL     1      -3.651  -3.568   1.620  1.00  0.00     0.167 HD
ENDBRANCH  24  26
ENDBRANCH   5  24
BRANCH   4  28
HETATM   28  C   UNL     1      -3.422  -0.489  -0.614  1.00  0.00     0.120 C 
BRANCH  28  29
HETATM   29  S   UNL     1      -3.949   1.089   0.099  1.00  0.00    -0.084 SA
BRANCH  29  30
HETATM   30  C   UNL     1      -5.688   0.977  -0.161  1.00  0.00     0.209 A 
HETATM   31  N   UNL     1      -6.331  -0.021  -0.727  1.00  0.00    -0.102 NA
HETATM   32  N   UNL     1      -7.592   0.216  -0.758  1.00  0.00    -0.022 NA
HETATM   33  N   UNL     1      -7.846   1.362  -0.225  1.00  0.00    -0.044 NA
HETATM   34  N   UNL     1      -6.615   1.902   0.185  1.00  0.00    -0.230 N 
HETATM   35  C   UNL     1      -6.383   3.190   0.844  1.00  0.00     0.184 C 
ENDBRANCH  29  30
ENDBRANCH  28  29
ENDBRANCH   4  28
TORSDOF 11
