REMARK  6 active torsions:
REMARK  status: ('A' for Active; 'I' for Inactive)
REMARK    1  A    between atoms: S_1  and  O_4 
REMARK    2  A    between atoms: S_1  and  N_5 
REMARK    3  A    between atoms: N_5  and  C_6 
REMARK       I    between atoms: N_9  and  C_13 
REMARK    4  A    between atoms: C_10  and  C_11 
REMARK    5  A    between atoms: C_11  and  O_23 
REMARK       I    between atoms: C_13  and  N_15 
REMARK    6  A    between atoms: N_15  and  C_16 
ROOT
HETATM    1  C   UNL     1      -2.378  -0.477  -0.873  1.00  0.00     0.129 C 
HETATM    2  C   UNL     1      -1.833  -1.923  -0.731  1.00  0.00     0.048 C 
HETATM    3  C   UNL     1      -0.497  -1.679   0.015  1.00  0.00     0.131 C 
HETATM    4  N   UNL     1       0.026  -0.421  -0.549  1.00  0.00    -0.317 N 
HETATM    5  C   UNL     1      -1.098   0.356  -1.092  1.00  0.00     0.210 C 
HETATM    6  C   UNL     1       1.321  -0.047  -0.565  1.00  0.00     0.319 C 
HETATM    7  O   UNL     1       1.639   1.018  -1.059  1.00  0.00    -0.247 OA
HETATM    8  N   UNL     1       2.262  -0.851  -0.033  1.00  0.00    -0.338 N 
HETATM    9  H   UNL     1       2.008  -1.700   0.361  1.00  0.00     0.164 HD
ENDROOT
BRANCH   5  10
HETATM   10  C   UNL     1      -1.211   1.670  -0.363  1.00  0.00     0.165 C 
HETATM   11  O   UNL     1      -0.669   1.816   0.707  1.00  0.00    -0.648 OA
BRANCH  10  12
HETATM   12  O   UNL     1      -1.912   2.679  -0.904  1.00  0.00    -0.775 OA
HETATM   13  H   UNL     1      -1.956   3.503  -0.400  1.00  0.00     0.167 HD
ENDBRANCH  10  12
ENDBRANCH   5  10
BRANCH   1  14
HETATM   14  N   UNL     1      -3.066  -0.059   0.351  1.00  0.00    -0.300 N 
HETATM   15  H   UNL     1      -2.556   0.296   1.096  1.00  0.00     0.174 HD
BRANCH  14  16
HETATM   16  S   UNL     1      -4.713  -0.193   0.463  1.00  0.00     0.195 S 
HETATM   17  O   UNL     1      -5.243   0.378  -0.725  1.00  0.00    -0.585 OA
HETATM   18  O   UNL     1      -5.064   0.254   1.765  1.00  0.00    -0.585 OA
BRANCH  16  19
HETATM   19  O   UNL     1      -5.048  -1.677   0.414  1.00  0.00    -0.279 OA
HETATM   20  H   UNL     1      -5.994  -1.869   0.473  1.00  0.00     0.234 HD
ENDBRANCH  16  19
ENDBRANCH  14  16
ENDBRANCH   1  14
BRANCH   8  21
HETATM   21  C   UNL     1       3.669  -0.443  -0.050  1.00  0.00     0.087 C 
HETATM   22  C   UNL     1       4.572  -1.696   0.009  1.00  0.00     0.027 C 
HETATM   23  C   UNL     1       5.939  -1.395  -0.400  1.00  0.00     0.032 C 
HETATM   24  C   UNL     1       6.617  -0.356   0.512  1.00  0.00     0.269 C 
HETATM   25  N   UNL     1       6.188   0.958   0.100  1.00  0.00     0.083 N 
HETATM   26  C   UNL     1       5.042   1.480   0.877  1.00  0.00     0.271 C 
HETATM   27  H   UNL     1       6.959   1.610   0.111  1.00  0.00     0.315 HD
HETATM   28  C   UNL     1       3.958   0.421   1.148  1.00  0.00     0.055 C 
ENDBRANCH   8  21
TORSDOF 6
