start_structures/Ligand_Substrate/Ligand_Complex_Stripped/FK2_6H2G.pdb
     RDKit          3D

 11 10  0  0  1  0  0  0  0  0999 V2000
   48.7945   51.8797   46.3353 N   0  0  0  0  0  0  0  0  0  0  0  0
   47.4443   51.3853   46.5437 C   0  0  2  0  0  0  0  0  0  0  0  0
   47.4028   49.8894   46.4396 C   0  0  0  0  0  0  0  0  0  0  0  0
   46.4740   49.2692   46.9363 O   0  0  0  0  0  0  0  0  0  0  0  0
   46.5133   52.0049   45.5107 C   0  0  0  0  0  0  0  0  0  0  0  0
   46.1711   53.3216   45.8743 O   0  0  0  0  0  0  0  0  0  0  0  0
   46.3831   54.1773   43.5958 C   0  0  0  0  0  0  0  0  0  0  0  0
   45.7160   55.1021   42.6350 C   0  0  0  0  0  0  0  0  0  0  0  0
   46.2825   55.4222   41.6037 O   0  0  0  0  0  0  0  0  0  0  0  0
   45.4808   53.9258   44.8016 C   0  0  1  0  0  0  0  0  0  0  0  0
   44.3357   53.2010   44.4464 O   0  0  0  0  0  0  0  0  0  0  0  0
  2  1  1  6
  2  5  1  0
  2  3  1  0
  3  4  2  0
  6 10  1  0
  6  5  1  0
  7  8  1  0
  7 10  1  0
  8  9  2  0
 10 11  1  6
M  END
>  <HEADER>  (1) 
    HYDROLASE                               13-JUL-18   6H2G              

>  <TITLE>  (1) 
    STRUCTURE OF BLAC FROM MYCOBACTERIUM TUBERCULOSIS BOUND TO THE        
   2 PROPIONALDEHYDE ESTER ADDUCT OF CLAVULANIC ACID.                     

>  <COMPND>  (1) 
    MOL_ID: 1;                                                            
   2 MOLECULE: BETA-LACTAMASE;                                            
   3 CHAIN: A, B;                                                         
   4 EC: 3.5.2.6;                                                         
   5 ENGINEERED: YES                                                      

>  <SOURCE>  (1) 
    MOL_ID: 1;                                                            
   2 ORGANISM_SCIENTIFIC: MYCOBACTERIUM TUBERCULOSIS;                     
   3 ORGANISM_TAXID: 1773;                                                
   4 GENE: BLAC, ERS027646_02769;                                         
   5 EXPRESSION_SYSTEM: ESCHERICHIA COLI BL21(DE3);                       
   6 EXPRESSION_SYSTEM_TAXID: 469008                                      

>  <KEYWDS>  (1) 
    HYDROLASE                                                             

>  <EXPDTA>  (1) 
    X-RAY DIFFRACTION                                                     

>  <AUTHOR>  (1) 
    R.TASSONI,N.S.PANNU,M.UBBINK                                          

>  <REVDAT>  (1) 
   2   27-FEB-19 6H2G    1       JRNL                                     
   1   23-JAN-19 6H2G    0                                                

>  <JRNL>  (1) 
      AUTH   R.TASSONI,A.BLOK,N.S.PANNU,M.UBBINK                          
      TITL   NEW CONFORMATIONS OF ACYLATION ADDUCTS OF INHIBITORS OF      
      TITL 2 BETA-LACTAMASE FROM MYCOBACTERIUM TUBERCULOSIS.              
      REF    BIOCHEMISTRY                  V.  58   997 2019              
      REFN                   ISSN 1520-4995                               
      PMID   30632739                                                     
      DOI    10.1021/ACS.BIOCHEM.8B01085                                  

>  <REMARK>  (1) 
   2                                                                      
   2 RESOLUTION.    2.80 ANGSTROMS.                                       
   3                                                                      
   3 REFINEMENT.                                                          
   3   PROGRAM     : REFMAC 5.8.0189                                      
   3   AUTHORS     : MURSHUDOV,SKUBAK,LEBEDEV,PANNU,STEINER,              
   3               : NICHOLLS,WINN,LONG,VAGIN                             
   3                                                                      
   3    REFINEMENT TARGET : NULL                                          
   3                                                                      
   3  DATA USED IN REFINEMENT.                                            
   3   RESOLUTION RANGE HIGH (ANGSTROMS) : 2.80                           
   3   RESOLUTION RANGE LOW  (ANGSTROMS) : 40.03                          
   3   DATA CUTOFF            (SIGMA(F)) : NULL                           
   3   COMPLETENESS FOR RANGE        (%) : 79.1                           
   3   NUMBER OF REFLECTIONS             : 8621                           
   3                                                                      
   3  FIT TO DATA USED IN REFINEMENT.                                     
   3   CROSS-VALIDATION METHOD          : THROUGHOUT                      
   3   FREE R VALUE TEST SET SELECTION  : RANDOM                          
   3   R VALUE     (WORKING + TEST SET) : 0.216                           
   3   R VALUE            (WORKING SET) : 0.212                           
   3   FREE R VALUE                     : 0.289                           
   3   FREE R VALUE TEST SET SIZE   (%) : 5.000                           
   3   FREE R VALUE TEST SET COUNT      : 449                             
   3                                                                      
   3  FIT IN THE HIGHEST RESOLUTION BIN.                                  
   3   TOTAL NUMBER OF BINS USED           : 20                           
   3   BIN RESOLUTION RANGE HIGH       (A) : 2.80                         
   3   BIN RESOLUTION RANGE LOW        (A) : 2.87                         
   3   REFLECTION IN BIN     (WORKING SET) : 630                          
   3   BIN COMPLETENESS (WORKING+TEST) (%) : 78.39                        
   3   BIN R VALUE           (WORKING SET) : 0.3060                       
   3   BIN FREE R VALUE SET COUNT          : 34                           
   3   BIN FREE R VALUE                    : 0.4080                       
   3                                                                      
   3  NUMBER OF NON-HYDROGEN ATOMS USED IN REFINEMENT.                    
   3   PROTEIN ATOMS            : 4036                                    
   3   NUCLEIC ACID ATOMS       : 0                                       
   3   HETEROGEN ATOMS          : 30                                      
   3   SOLVENT ATOMS            : 25                                      
   3                                                                      
   3  B VALUES.                                                           
   3   FROM WILSON PLOT           (A**2) : NULL                           
   3   MEAN B VALUE      (OVERALL, A**2) : 28.12                          
   3   OVERALL ANISOTROPIC B VALUE.                                       
   3    B11 (A**2) : -5.29000                                             
   3    B22 (A**2) : 4.60000                                              
   3    B33 (A**2) : -0.34000                                             
   3    B12 (A**2) : 1.19000                                              
   3    B13 (A**2) : -1.17000                                             
   3    B23 (A**2) : -2.16000                                             
   3                                                                      
   3  ESTIMATED OVERALL COORDINATE ERROR.                                 
   3   ESU BASED ON R VALUE                            (A): NULL          
   3   ESU BASED ON FREE R VALUE                       (A): 0.614         
   3   ESU BASED ON MAXIMUM LIKELIHOOD                 (A): 0.412         
   3   ESU FOR B VALUES BASED ON MAXIMUM LIKELIHOOD (A**2): 22.210        
   3                                                                      
   3 CORRELATION COEFFICIENTS.                                            
   3   CORRELATION COEFFICIENT FO-FC      : 0.911                         
   3   CORRELATION COEFFICIENT FO-FC FREE : 0.857                         
   3                                                                      
   3  RMS DEVIATIONS FROM IDEAL VALUES        COUNT    RMS    WEIGHT      
   3   BOND LENGTHS REFINED ATOMS        (A):  4149 ; 0.012 ; 0.019       
   3   BOND LENGTHS OTHERS               (A):  3858 ; 0.002 ; 0.020       
   3   BOND ANGLES REFINED ATOMS   (DEGREES):  5648 ; 1.481 ; 1.970       
   3   BOND ANGLES OTHERS          (DEGREES):  8885 ; 0.994 ; 3.000       
   3   TORSION ANGLES, PERIOD 1    (DEGREES):   537 ; 6.808 ; 5.000       
   3   TORSION ANGLES, PERIOD 2    (DEGREES):   180 ;36.795 ;23.222       
   3   TORSION ANGLES, PERIOD 3    (DEGREES):   624 ;16.922 ;15.000       
   3   TORSION ANGLES, PERIOD 4    (DEGREES):    38 ;18.650 ;15.000       
   3   CHIRAL-CENTER RESTRAINTS       (A**3):   648 ; 0.072 ; 0.200       
   3   GENERAL PLANES REFINED ATOMS      (A):  4728 ; 0.005 ; 0.021       
   3   GENERAL PLANES OTHERS             (A):   850 ; 0.002 ; 0.020       
   3   NON-BONDED CONTACTS REFINED ATOMS (A):  NULL ;  NULL ;  NULL       
   3   NON-BONDED CONTACTS OTHERS        (A):  NULL ;  NULL ;  NULL       
   3   NON-BONDED TORSION REFINED ATOMS  (A):  NULL ;  NULL ;  NULL       
   3   NON-BONDED TORSION OTHERS         (A):  NULL ;  NULL ;  NULL       
   3   H-BOND (X...Y) REFINED ATOMS      (A):  NULL ;  NULL ;  NULL       
   3   H-BOND (X...Y) OTHERS             (A):  NULL ;  NULL ;  NULL       
   3   POTENTIAL METAL-ION REFINED ATOMS (A):  NULL ;  NULL ;  NULL       
   3   POTENTIAL METAL-ION OTHERS        (A):  NULL ;  NULL ;  NULL       
   3   SYMMETRY VDW REFINED ATOMS        (A):  NULL ;  NULL ;  NULL       
   3   SYMMETRY VDW OTHERS               (A):  NULL ;  NULL ;  NULL       
   3   SYMMETRY H-BOND REFINED ATOMS     (A):  NULL ;  NULL ;  NULL       
   3   SYMMETRY H-BOND OTHERS            (A):  NULL ;  NULL ;  NULL       
   3   SYMMETRY METAL-ION REFINED ATOMS  (A):  NULL ;  NULL ;  NULL       
   3   SYMMETRY METAL-ION OTHERS         (A):  NULL ;  NULL ;  NULL       
   3                                                                      
   3  ISOTROPIC THERMAL FACTOR RESTRAINTS.     COUNT   RMS    WEIGHT      
   3   MAIN-CHAIN BOND REFINED ATOMS  (A**2):  2155 ; 1.452 ; 2.837       
   3   MAIN-CHAIN BOND OTHER ATOMS    (A**2):  2150 ; 1.446 ; 2.836       
   3   MAIN-CHAIN ANGLE REFINED ATOMS (A**2):  2682 ; 2.400 ; 4.244       
   3   MAIN-CHAIN ANGLE OTHER ATOMS   (A**2):  2683 ; 2.402 ; 4.245       
   3   SIDE-CHAIN BOND REFINED ATOMS  (A**2):  1994 ; 1.180 ; 2.910       
   3   SIDE-CHAIN BOND OTHER ATOMS    (A**2):  1995 ; 1.180 ; 2.911       
   3   SIDE-CHAIN ANGLE REFINED ATOMS (A**2):  NULL ;  NULL ;  NULL       
   3   SIDE-CHAIN ANGLE OTHER ATOMS   (A**2):  2966 ; 2.018 ; 4.336       
   3   LONG RANGE B REFINED ATOMS     (A**2):  4613 ; 4.217 ;33.645       
   3   LONG RANGE B OTHER ATOMS       (A**2):  4614 ; 4.216 ;33.649       
   3                                                                      
   3 ANISOTROPIC THERMAL FACTOR RESTRAINTS.    COUNT   RMS   WEIGHT       
   3   RIGID-BOND RESTRAINTS          (A**2):  NULL ;  NULL ;  NULL       
   3   SPHERICITY; FREE ATOMS         (A**2):  NULL ;  NULL ;  NULL       
   3   SPHERICITY; BONDED ATOMS       (A**2):  NULL ;  NULL ;  NULL       
   3                                                                      
   3  NCS RESTRAINTS STATISTICS                                           
   3   NCS TYPE: LOCAL                                                    
   3   NUMBER OF DIFFERENT NCS PAIRS  : 1                                 
   3  GROUP  CHAIN1    RANGE     CHAIN2     RANGE    COUNT RMS  WEIGHT    
   3    1     A    28    294       B    28    294   17246  0.08  0.05     
   3                                                                      
   3  TLS DETAILS                                                         
   3   NUMBER OF TLS GROUPS  : NULL                                       
   3                                                                      
   3  BULK SOLVENT MODELLING.                                             
   3   METHOD USED : NULL                                                 
   3   PARAMETERS FOR MASK CALCULATION                                    
   3   VDW PROBE RADIUS   : 1.20                                          
   3   ION PROBE RADIUS   : 0.80                                          
   3   SHRINKAGE RADIUS   : 0.80                                          
   3                                                                      
   3  OTHER REFINEMENT REMARKS: HYDROGENS HAVE BEEN ADDED IN THE RIDING   
   3  POSITIONS                                                           
   4                                                                      
   4 6H2G COMPLIES WITH FORMAT V. 3.30, 13-JUL-11                         
 100                                                                      
 100 THIS ENTRY HAS BEEN PROCESSED BY PDBE ON 14-JUL-18.                  
 100 THE DEPOSITION ID IS D_1200010940.                                   
 200                                                                      
 200 EXPERIMENTAL DETAILS                                                 
 200  EXPERIMENT TYPE                : X-RAY DIFFRACTION                  
 200  DATE OF DATA COLLECTION        : 01-APR-16                          
 200  TEMPERATURE           (KELVIN) : 100                                
 200  PH                             : NULL                               
 200  NUMBER OF CRYSTALS USED        : 1                                  
 200                                                                      
 200  SYNCHROTRON              (Y/N) : Y                                  
 200  RADIATION SOURCE               : ESRF                               
 200  BEAMLINE                       : ID29                               
 200  X-RAY GENERATOR MODEL          : NULL                               
 200  MONOCHROMATIC OR LAUE    (M/L) : M                                  
 200  WAVELENGTH OR RANGE        (A) : 0.9763                             
 200  MONOCHROMATOR                  : NULL                               
 200  OPTICS                         : NULL                               
 200                                                                      
 200  DETECTOR TYPE                  : PIXEL                              
 200  DETECTOR MANUFACTURER          : DECTRIS PILATUS3 6M                
 200  INTENSITY-INTEGRATION SOFTWARE : XDS                                
 200  DATA SCALING SOFTWARE          : AIMLESS                            
 200                                                                      
 200  NUMBER OF UNIQUE REFLECTIONS   : 9073                               
 200  RESOLUTION RANGE HIGH      (A) : 2.800                              
 200  RESOLUTION RANGE LOW       (A) : 40.030                             
 200  REJECTION CRITERIA  (SIGMA(I)) : NULL                               
 200                                                                      
 200 OVERALL.                                                             
 200  COMPLETENESS FOR RANGE     (%) : 79.2                               
 200  DATA REDUNDANCY                : 1.600                              
 200  R MERGE                    (I) : NULL                               
 200  R SYM                      (I) : NULL                               
 200  <I/SIGMA(I)> FOR THE DATA SET  : 5.0000                             
 200                                                                      
 200 IN THE HIGHEST RESOLUTION SHELL.                                     
 200  HIGHEST RESOLUTION SHELL, RANGE HIGH (A) : 2.80                     
 200  HIGHEST RESOLUTION SHELL, RANGE LOW  (A) : 2.95                     
 200  COMPLETENESS FOR SHELL     (%) : 80.9                               
 200  DATA REDUNDANCY IN SHELL       : 1.60                               
 200  R MERGE FOR SHELL          (I) : NULL                               
 200  R SYM FOR SHELL            (I) : NULL                               
 200  <I/SIGMA(I)> FOR SHELL         : 2.100                              
 200                                                                      
 200 DIFFRACTION PROTOCOL: SINGLE WAVELENGTH                              
 200 METHOD USED TO DETERMINE THE STRUCTURE: MOLECULAR REPLACEMENT        
 200 SOFTWARE USED: MOLREP                                                
 200 STARTING MODEL: 2GDN                                                 
 200                                                                      
 200 REMARK: NULL                                                         
 280                                                                      
 280 CRYSTAL                                                              
 280 SOLVENT CONTENT, VS   (%): 39.67                                     
 280 MATTHEWS COEFFICIENT, VM (ANGSTROMS**3/DA): 2.04                     
 280                                                                      
 280 CRYSTALLIZATION CONDITIONS: 0.1 M SODIUM ACETATE BUFFER, PH 5.0      
 280  25% W/V PEG1500, VAPOR DIFFUSION, SITTING DROP, TEMPERATURE         
 280  293.5K                                                              
 290                                                                      
 290 CRYSTALLOGRAPHIC SYMMETRY                                            
 290 SYMMETRY OPERATORS FOR SPACE GROUP: P 1                              
 290                                                                      
 290      SYMOP   SYMMETRY                                                
 290     NNNMMM   OPERATOR                                                
 290       1555   X,Y,Z                                                   
 290                                                                      
 290     WHERE NNN -> OPERATOR NUMBER                                     
 290           MMM -> TRANSLATION VECTOR                                  
 290                                                                      
 290 CRYSTALLOGRAPHIC SYMMETRY TRANSFORMATIONS                            
 290 THE FOLLOWING TRANSFORMATIONS OPERATE ON THE ATOM/HETATM             
 290 RECORDS IN THIS ENTRY TO PRODUCE CRYSTALLOGRAPHICALLY                
 290 RELATED MOLECULES.                                                   
 290   SMTRY1   1  1.000000  0.000000  0.000000        0.00000            
 290   SMTRY2   1  0.000000  1.000000  0.000000        0.00000            
 290   SMTRY3   1  0.000000  0.000000  1.000000        0.00000            
 290                                                                      
 290 REMARK: NULL                                                         
 300                                                                      
 300 BIOMOLECULE: 1, 2                                                    
 300 SEE REMARK 350 FOR THE AUTHOR PROVIDED AND/OR PROGRAM                
 300 GENERATED ASSEMBLY INFORMATION FOR THE STRUCTURE IN                  
 300 THIS ENTRY. THE REMARK MAY ALSO PROVIDE INFORMATION ON               
 300 BURIED SURFACE AREA.                                                 
 350                                                                      
 350 COORDINATES FOR A COMPLETE MULTIMER REPRESENTING THE KNOWN           
 350 BIOLOGICALLY SIGNIFICANT OLIGOMERIZATION STATE OF THE                
 350 MOLECULE CAN BE GENERATED BY APPLYING BIOMT TRANSFORMATIONS          
 350 GIVEN BELOW.  BOTH NON-CRYSTALLOGRAPHIC AND                          
 350 CRYSTALLOGRAPHIC OPERATIONS ARE GIVEN.                               
 350                                                                      
 350 BIOMOLECULE: 1                                                       
 350 AUTHOR DETERMINED BIOLOGICAL UNIT: MONOMERIC                         
 350 APPLY THE FOLLOWING TO CHAINS: A                                     
 350   BIOMT1   1  1.000000  0.000000  0.000000        0.00000            
 350   BIOMT2   1  0.000000  1.000000  0.000000        0.00000            
 350   BIOMT3   1  0.000000  0.000000  1.000000        0.00000            
 350                                                                      
 350 BIOMOLECULE: 2                                                       
 350 AUTHOR DETERMINED BIOLOGICAL UNIT: MONOMERIC                         
 350 APPLY THE FOLLOWING TO CHAINS: B                                     
 350   BIOMT1   1  1.000000  0.000000  0.000000        0.00000            
 350   BIOMT2   1  0.000000  1.000000  0.000000        0.00000            
 350   BIOMT3   1  0.000000  0.000000  1.000000        0.00000            
 465                                                                      
 465 MISSING RESIDUES                                                     
 465 THE FOLLOWING RESIDUES WERE NOT LOCATED IN THE                       
 465 EXPERIMENT. (M=MODEL NUMBER; RES=RESIDUE NAME; C=CHAIN               
 465 IDENTIFIER; SSSEQ=SEQUENCE NUMBER; I=INSERTION CODE.)                
 465                                                                      
 465   M RES C SSSEQI                                                     
 465     HIS A   297                                                      
 465     HIS A   298                                                      
 465     HIS A   299                                                      
 465     HIS A   300                                                      
 465     HIS A   301                                                      
 465     HIS B   296                                                      
 465     HIS B   297                                                      
 465     HIS B   298                                                      
 465     HIS B   299                                                      
 465     HIS B   300                                                      
 465     HIS B   301                                                      
 500                                                                      
 500 GEOMETRY AND STEREOCHEMISTRY                                         
 500 SUBTOPIC: CLOSE CONTACTS IN SAME ASYMMETRIC UNIT                     
 500                                                                      
 500 THE FOLLOWING ATOMS ARE IN CLOSE CONTACT.                            
 500                                                                      
 500  ATM1  RES C  SSEQI   ATM2  RES C  SSEQI           DISTANCE          
 500   OG   SER B    70     O    FK2 B   401              1.71            
 500   OG   SER A    70     O    FK2 A   401              1.90            
 500   OG   SER A   162     OG1  THR A   183              2.16            
 500   OG   SER B   162     OG1  THR B   183              2.16            
 500                                                                      
 500 REMARK: NULL                                                         
 500                                                                      
 500 GEOMETRY AND STEREOCHEMISTRY                                         
 500 SUBTOPIC: CLOSE CONTACTS                                             
 500                                                                      
 500 THE FOLLOWING ATOMS THAT ARE RELATED BY CRYSTALLOGRAPHIC             
 500 SYMMETRY ARE IN CLOSE CONTACT.  AN ATOM LOCATED WITHIN 0.15          
 500 ANGSTROMS OF A SYMMETRY RELATED ATOM IS ASSUMED TO BE ON A           
 500 SPECIAL POSITION AND IS, THEREFORE, LISTED IN REMARK 375             
 500 INSTEAD OF REMARK 500.  ATOMS WITH NON-BLANK ALTERNATE               
 500 LOCATION INDICATORS ARE NOT INCLUDED IN THE CALCULATIONS.            
 500                                                                      
 500 DISTANCE CUTOFF:                                                     
 500 2.2 ANGSTROMS FOR CONTACTS NOT INVOLVING HYDROGEN ATOMS              
 500 1.6 ANGSTROMS FOR CONTACTS INVOLVING HYDROGEN ATOMS                  
 500                                                                      
 500  ATM1  RES C  SSEQI   ATM2  RES C  SSEQI  SSYMOP   DISTANCE          
 500   O    GLN A   108     NE2  HIS A   186     1545     2.08            
 500                                                                      
 500 REMARK: NULL                                                         
 500                                                                      
 500 GEOMETRY AND STEREOCHEMISTRY                                         
 500 SUBTOPIC: COVALENT BOND ANGLES                                       
 500                                                                      
 500 THE STEREOCHEMICAL PARAMETERS OF THE FOLLOWING RESIDUES              
 500 HAVE VALUES WHICH DEVIATE FROM EXPECTED VALUES BY MORE               
 500 THAN 6*RMSD (M=MODEL NUMBER; RES=RESIDUE NAME; C=CHAIN               
 500 IDENTIFIER; SSEQ=SEQUENCE NUMBER; I=INSERTION CODE).                 
 500                                                                      
 500 STANDARD TABLE:                                                      
 500 FORMAT: (10X,I3,1X,A3,1X,A1,I4,A1,3(1X,A4,2X),12X,F5.1)              
 500                                                                      
 500 EXPECTED VALUES PROTEIN: ENGH AND HUBER, 1999                        
 500 EXPECTED VALUES NUCLEIC ACID: CLOWNEY ET AL 1996                     
 500                                                                      
 500  M RES CSSEQI ATM1   ATM2   ATM3                                     
 500    ARG B  39   NE  -  CZ  -  NH2 ANGL. DEV. =   3.2 DEGREES          
 500                                                                      
 500 REMARK: NULL                                                         
 500                                                                      
 500 GEOMETRY AND STEREOCHEMISTRY                                         
 500 SUBTOPIC: TORSION ANGLES                                             
 500                                                                      
 500 TORSION ANGLES OUTSIDE THE EXPECTED RAMACHANDRAN REGIONS:            
 500 (M=MODEL NUMBER; RES=RESIDUE NAME; C=CHAIN IDENTIFIER;               
 500 SSEQ=SEQUENCE NUMBER; I=INSERTION CODE).                             
 500                                                                      
 500 STANDARD TABLE:                                                      
 500 FORMAT:(10X,I3,1X,A3,1X,A1,I4,A1,4X,F7.2,3X,F7.2)                    
 500                                                                      
 500 EXPECTED VALUES: GJ KLEYWEGT AND TA JONES (1996). PHI/PSI-           
 500 CHOLOGY: RAMACHANDRAN REVISITED. STRUCTURE 4, 1395 - 1400            
 500                                                                      
 500  M RES CSSEQI        PSI       PHI                                   
 500    LEU A  30      -34.09    -36.45                                   
 500    THR A  52     -168.86   -123.61                                   
 500    CYS A  69     -148.75     50.08                                   
 500    LEU A  86      -38.77    -39.88                                   
 500    VAL A 161      -55.37   -134.65                                   
 500    ARG A 215       30.18    -97.01                                   
 500    ARG A 222     -109.73   -118.91                                   
 500    SER A 253      171.40    -57.92                                   
 500    ARG A 267       65.63   -114.30                                   
 500    TYR A 272      -36.61    -39.53                                   
 500    THR B  52     -168.26   -121.01                                   
 500    CYS B  69     -149.46     49.35                                   
 500    ILE B 103      108.88    -44.46                                   
 500    VAL B 161      -54.61   -134.99                                   
 500    ARG B 215       30.21    -97.92                                   
 500    ARG B 222     -108.95   -119.41                                   
 500    SER B 253      171.24    -57.56                                   
 500    ARG B 267       66.26   -115.06                                   
 500                                                                      
 500 REMARK: NULL                                                         
 525                                                                      
 525 SOLVENT                                                              
 525                                                                      
 525 THE SOLVENT MOLECULES HAVE CHAIN IDENTIFIERS THAT                    
 525 INDICATE THE POLYMER CHAIN WITH WHICH THEY ARE MOST                  
 525 CLOSELY ASSOCIATED. THE REMARK LISTS ALL THE SOLVENT                 
 525 MOLECULES WHICH ARE MORE THAN 5A AWAY FROM THE                       
 525 NEAREST POLYMER CHAIN (M = MODEL NUMBER;                             
 525 RES=RESIDUE NAME; C=CHAIN IDENTIFIER; SSEQ=SEQUENCE                  
 525 NUMBER; I=INSERTION CODE):                                           
 525                                                                      
 525  M RES CSSEQI                                                        
 525    HOH B 509        DISTANCE =  6.77 ANGSTROMS                       
 800                                                                      
 800 SITE                                                                 
 800 SITE_IDENTIFIER: AC1                                                 
 800 EVIDENCE_CODE: SOFTWARE                                              
 800 SITE_DESCRIPTION: binding site for residue FK2 A 401                 
 800                                                                      
 800 SITE_IDENTIFIER: AC2                                                 
 800 EVIDENCE_CODE: SOFTWARE                                              
 800 SITE_DESCRIPTION: binding site for residue ACT A 402                 
 800                                                                      
 800 SITE_IDENTIFIER: AC3                                                 
 800 EVIDENCE_CODE: SOFTWARE                                              
 800 SITE_DESCRIPTION: binding site for residue ACT A 403                 
 800                                                                      
 800 SITE_IDENTIFIER: AC4                                                 
 800 EVIDENCE_CODE: SOFTWARE                                              
 800 SITE_DESCRIPTION: binding site for residue ACT A 404                 
 800                                                                      
 800 SITE_IDENTIFIER: AC5                                                 
 800 EVIDENCE_CODE: SOFTWARE                                              
 800 SITE_DESCRIPTION: binding site for residue ACT B 402                 
 800                                                                      
 800 SITE_IDENTIFIER: AC6                                                 
 800 EVIDENCE_CODE: SOFTWARE                                              
 800 SITE_DESCRIPTION: binding site for residue ACT B 403                 
 800                                                                      
 800 SITE_IDENTIFIER: AC7                                                 
 800 EVIDENCE_CODE: SOFTWARE                                              
 800 SITE_DESCRIPTION: binding site for Di-peptide FK2 B 401 and SER B    
 800  70                                                                  

>  <DBREF1>  (1) 
 6H2G A   29   293  UNP                  A0A0T9EA39_MYCTX                 
 6H2G B   29   293  UNP                  A0A0T9EA39_MYCTX                 

>  <DBREF2>  (1) 
 6H2G A     A0A0T9EA39                          6         270             
 6H2G B     A0A0T9EA39                          6         270             

>  <SEQADV>  (1) 
 6H2G MET A   28  UNP  A0A0T9EA3           INITIATING METHIONINE          
 6H2G LEU A  294  UNP  A0A0T9EA3           EXPRESSION TAG                 
 6H2G GLU A  295  UNP  A0A0T9EA3           EXPRESSION TAG                 
 6H2G HIS A  296  UNP  A0A0T9EA3           EXPRESSION TAG                 
 6H2G HIS A  297  UNP  A0A0T9EA3           EXPRESSION TAG                 
 6H2G HIS A  298  UNP  A0A0T9EA3           EXPRESSION TAG                 
 6H2G HIS A  299  UNP  A0A0T9EA3           EXPRESSION TAG                 
 6H2G HIS A  300  UNP  A0A0T9EA3           EXPRESSION TAG                 
 6H2G HIS A  301  UNP  A0A0T9EA3           EXPRESSION TAG                 
 6H2G MET B   28  UNP  A0A0T9EA3           INITIATING METHIONINE          
 6H2G LEU B  294  UNP  A0A0T9EA3           EXPRESSION TAG                 
 6H2G GLU B  295  UNP  A0A0T9EA3           EXPRESSION TAG                 
 6H2G HIS B  296  UNP  A0A0T9EA3           EXPRESSION TAG                 
 6H2G HIS B  297  UNP  A0A0T9EA3           EXPRESSION TAG                 
 6H2G HIS B  298  UNP  A0A0T9EA3           EXPRESSION TAG                 
 6H2G HIS B  299  UNP  A0A0T9EA3           EXPRESSION TAG                 
 6H2G HIS B  300  UNP  A0A0T9EA3           EXPRESSION TAG                 
 6H2G HIS B  301  UNP  A0A0T9EA3           EXPRESSION TAG                 

>  <SEQRES>  (1) 
   1 A  274  MET ASP LEU ALA ASP ARG PHE ALA GLU LEU GLU ARG ARG          
   2 A  274  TYR ASP ALA ARG LEU GLY VAL TYR VAL PRO ALA THR GLY          
   3 A  274  THR THR ALA ALA ILE GLU TYR ARG ALA ASP GLU ARG PHE          
   4 A  274  ALA PHE CYS SER THR PHE LYS ALA PRO LEU VAL ALA ALA          
   5 A  274  VAL LEU HIS GLN ASN PRO LEU THR HIS LEU ASP LYS LEU          
   6 A  274  ILE THR TYR THR SER ASP ASP ILE ARG SER ILE SER PRO          
   7 A  274  VAL ALA GLN GLN HIS VAL GLN THR GLY MET THR ILE GLY          
   8 A  274  GLN LEU CYS ASP ALA ALA ILE ARG TYR SER ASP GLY THR          
   9 A  274  ALA ALA ASN LEU LEU LEU ALA ASP LEU GLY GLY PRO GLY          
  10 A  274  GLY GLY THR ALA ALA PHE THR GLY TYR LEU ARG SER LEU          
  11 A  274  GLY ASP THR VAL SER ARG LEU ASP ALA GLU GLU PRO GLU          
  12 A  274  LEU ASN ARG ASP PRO PRO GLY ASP GLU ARG ASP THR THR          
  13 A  274  THR PRO HIS ALA ILE ALA LEU VAL LEU GLN GLN LEU VAL          
  14 A  274  LEU GLY ASN ALA LEU PRO PRO ASP LYS ARG ALA LEU LEU          
  15 A  274  THR ASP TRP MET ALA ARG ASN THR THR GLY ALA LYS ARG          
  16 A  274  ILE ARG ALA GLY PHE PRO ALA ASP TRP LYS VAL ILE ASP          
  17 A  274  LYS THR GLY THR GLY ASP TYR GLY ARG ALA ASN ASP ILE          
  18 A  274  ALA VAL VAL TRP SER PRO THR GLY VAL PRO TYR VAL VAL          
  19 A  274  ALA VAL MET SER ASP ARG ALA GLY GLY GLY TYR ASP ALA          
  20 A  274  GLU PRO ARG GLU ALA LEU LEU ALA GLU ALA ALA THR CYS          
  21 A  274  VAL ALA GLY VAL LEU ALA LEU GLU HIS HIS HIS HIS HIS          
  22 A  274  HIS                                                          
   1 B  274  MET ASP LEU ALA ASP ARG PHE ALA GLU LEU GLU ARG ARG          
   2 B  274  TYR ASP ALA ARG LEU GLY VAL TYR VAL PRO ALA THR GLY          
   3 B  274  THR THR ALA ALA ILE GLU TYR ARG ALA ASP GLU ARG PHE          
   4 B  274  ALA PHE CYS SER THR PHE LYS ALA PRO LEU VAL ALA ALA          
   5 B  274  VAL LEU HIS GLN ASN PRO LEU THR HIS LEU ASP LYS LEU          
   6 B  274  ILE THR TYR THR SER ASP ASP ILE ARG SER ILE SER PRO          
   7 B  274  VAL ALA GLN GLN HIS VAL GLN THR GLY MET THR ILE GLY          
   8 B  274  GLN LEU CYS ASP ALA ALA ILE ARG TYR SER ASP GLY THR          
   9 B  274  ALA ALA ASN LEU LEU LEU ALA ASP LEU GLY GLY PRO GLY          
  10 B  274  GLY GLY THR ALA ALA PHE THR GLY TYR LEU ARG SER LEU          
  11 B  274  GLY ASP THR VAL SER ARG LEU ASP ALA GLU GLU PRO GLU          
  12 B  274  LEU ASN ARG ASP PRO PRO GLY ASP GLU ARG ASP THR THR          
  13 B  274  THR PRO HIS ALA ILE ALA LEU VAL LEU GLN GLN LEU VAL          
  14 B  274  LEU GLY ASN ALA LEU PRO PRO ASP LYS ARG ALA LEU LEU          
  15 B  274  THR ASP TRP MET ALA ARG ASN THR THR GLY ALA LYS ARG          
  16 B  274  ILE ARG ALA GLY PHE PRO ALA ASP TRP LYS VAL ILE ASP          
  17 B  274  LYS THR GLY THR GLY ASP TYR GLY ARG ALA ASN ASP ILE          
  18 B  274  ALA VAL VAL TRP SER PRO THR GLY VAL PRO TYR VAL VAL          
  19 B  274  ALA VAL MET SER ASP ARG ALA GLY GLY GLY TYR ASP ALA          
  20 B  274  GLU PRO ARG GLU ALA LEU LEU ALA GLU ALA ALA THR CYS          
  21 B  274  VAL ALA GLY VAL LEU ALA LEU GLU HIS HIS HIS HIS HIS          
  22 B  274  HIS                                                          

>  <HET>  (1) 
 FK2  A 401       5                                                       
 ACT  A 402       4                                                       
 ACT  A 403       4                                                       
 ACT  A 404       4                                                       
 FK2  B 401       5                                                       
 ACT  B 402       4                                                       
 ACT  B 403       4                                                       

>  <HETNAM>  (1) 
     FK2 3-OXIDANYLIDENEPROPANOIC ACID                                    
     ACT ACETATE ION                                                      

>  <FORMUL>  (1) 
   3  FK2    2(C3 H4 O3)                                                  
   4  ACT    5(C2 H3 O2 1-)                                               
  10  HOH   *25(H2 O)                                                     

>  <HELIX>  (1) 
   1 AA1 LEU A   30  ASP A   42  1                                  13    
   2 AA2 CYS A   69  THR A   71  5                                   3    
   3 AA3 PHE A   72  GLN A   83  1                                  12    
   4 AA4 PRO A   85  ASP A   90  5                                   6    
   5 AA5 SER A  104  HIS A  110  1                                   7    
   6 AA6 ILE A  117  TYR A  127  1                                  11    
   7 AA7 ASP A  129  GLY A  142  1                                  14    
   8 AA8 GLY A  145  SER A  156  1                                  12    
   9 AA9 PRO A  169  ARG A  173  5                                   5    
  10 AB1 THR A  184  LEU A  197  1                                  14    
  11 AB2 PRO A  202  ARG A  215  1                                  14    
  12 AB3 ILE A  223  PHE A  227  5                                   5    
  13 AB4 ARG A  267  GLY A  271  5                                   5    
  14 AB5 ARG A  277  LEU A  294  1                                  18    
  15 AB6 ASP B   29  ASP B   42  1                                  14    
  16 AB7 CYS B   69  THR B   71  5                                   3    
  17 AB8 PHE B   72  GLN B   83  1                                  12    
  18 AB9 PRO B   85  ASP B   90  5                                   6    
  19 AC1 VAL B  106  VAL B  111  5                                   6    
  20 AC2 ILE B  117  TYR B  127  1                                  11    
  21 AC3 ASP B  129  SER B  156  1                                  28    
  22 AC4 PRO B  169  ARG B  173  5                                   5    
  23 AC5 THR B  184  LEU B  197  1                                  14    
  24 AC6 PRO B  202  ARG B  215  1                                  14    
  25 AC7 ILE B  223  PHE B  227  5                                   5    
  26 AC8 ARG B  267  GLY B  271  5                                   5    
  27 AC9 ARG B  277  LEU B  294  1                                  18    

>  <SHEET>  (1) 
   1 AA1 5 ILE A  58  TYR A  60  0                                        
   2 AA1 5 ARG A  44  VAL A  49 -1  N  VAL A  49   O  ILE A  58           
   3 AA1 5 PRO A 258  ASP A 266 -1  O  MET A 264   N  GLY A  46           
   4 AA1 5 ARG A 244  TRP A 252 -1  N  ALA A 249   O  VAL A 261           
   5 AA1 5 LYS A 232  GLY A 240 -1  N  GLY A 238   O  ASN A 246           
   1 AA2 2 PHE A  66  ALA A  67  0                                        
   2 AA2 2 THR A 182  THR A 183 -1  O  THR A 183   N  PHE A  66           
   1 AA3 2 LEU A  92  ILE A  93  0                                        
   2 AA3 2 MET A 115  THR A 116 -1  O  MET A 115   N  ILE A  93           
   1 AA4 5 ILE B  58  TYR B  60  0                                        
   2 AA4 5 ARG B  44  VAL B  49 -1  N  VAL B  49   O  ILE B  58           
   3 AA4 5 PRO B 258  ASP B 266 -1  O  MET B 264   N  GLY B  46           
   4 AA4 5 ARG B 244  TRP B 252 -1  N  ALA B 249   O  VAL B 261           
   5 AA4 5 LYS B 232  GLY B 240 -1  N  GLY B 238   O  ASN B 246           
   1 AA5 2 PHE B  66  ALA B  67  0                                        
   2 AA5 2 THR B 182  THR B 183 -1  O  THR B 183   N  PHE B  66           
   1 AA6 2 LEU B  92  ILE B  93  0                                        
   2 AA6 2 MET B 115  THR B 116 -1  O  MET B 115   N  ILE B  93           

>  <LINK>  (1) 
       OG  SER A  70                 C   FK2 A 401     1555   1555  1.39  
       OG  SER B  70                 C   FK2 B 401     1555   1555  1.36  

>  <CISPEP>  (1) 
   1 GLU A  168    PRO A  169          0         2.27                     
   2 GLU B  168    PRO B  169          0         2.09                     

>  <SITE>  (1) 
   1 AC1  7 CYS A  69  SER A  70  SER A 128  ASN A 172                    
   2 AC1  7 THR A 239  ACT A 402  HOH A 510                               
   1 AC2  5 SER A 128  THR A 237  GLY A 238  THR A 239                    
   2 AC2  5 FK2 A 401                                                     
   1 AC3  4 THR A 113  GLY A 114  GLN A 119  TYR B 272                    
   1 AC4  2 TRP A 212  ARG A 215                                          
   1 AC5  1 LYS B 232                                                     
   1 AC6  6 SER B  70  SER B 128  THR B 237  GLY B 238                    
   2 AC6  6 THR B 239  FK2 B 401                                          
   1 AC7 12 PHE B  68  CYS B  69  THR B  71  PHE B  72                    
   2 AC7 12 LYS B  73  SER B 128  GLU B 168  ASN B 172                    
   3 AC7 12 LYS B 236  THR B 237  THR B 239  ACT B 403                    

>  <ORIGX1>  (1) 
      1.000000  0.000000  0.000000        0.00000                         

>  <ORIGX2>  (1) 
      0.000000  1.000000  0.000000        0.00000                         

>  <ORIGX3>  (1) 
      0.000000  0.000000  1.000000        0.00000                         

>  <SCALE1>  (1) 
      0.025382 -0.000329  0.000064        0.00000                         

>  <SCALE2>  (1) 
      0.000000  0.024207 -0.006184        0.00000                         

>  <SCALE3>  (1) 
      0.000000  0.000000  0.013541        0.00000                         

>  <MASTER>  (1) 
      380    0    7   27   18    0   12    6 4091    2   32   44          

$$$$
