start_structures/Ligand_Substrate/Ligand_Complex_Stripped/KE1_6N6V.pdb
     RDKit          3D

 32 33  0  0  1  0  0  0  0  0999 V2000
   48.7952   51.8789   46.3353 N   0  0  0  0  0  0  0  0  0  0  0  0
   47.4452   51.3839   46.5435 C   0  0  2  0  0  0  0  0  0  0  0  0
   47.4038   49.8882   46.4407 C   0  0  0  0  0  0  0  0  0  0  0  0
   46.4737   49.2688   46.9362 O   0  0  0  0  0  0  0  0  0  0  0  0
   46.5154   52.0002   45.5091 C   0  0  0  0  0  0  0  0  0  0  0  0
   46.1668   53.3300   45.8752 O   0  0  0  0  0  0  0  0  0  0  0  0
   42.3366   52.6708   44.7506 C   0  0  1  0  0  0  0  0  0  0  0  0
   41.5631   53.5464   45.6982 C   0  0  1  0  0  0  0  0  0  0  0  0
   41.4731   54.8849   44.9980 C   0  0  0  0  0  0  0  0  0  0  0  0
   43.0952   53.6464   43.8422 C   0  0  2  0  0  0  0  0  0  0  0  0
   45.2931   54.1090   45.1147 C   0  0  0  0  0  0  0  0  0  0  0  0
   43.1928   51.6725   45.5159 C   0  0  0  0  0  0  0  0  0  0  0  0
   39.3177   52.7883   44.3622 C   0  0  2  0  0  0  0  0  0  0  0  0
   38.4049   53.9637   44.0887 C   0  0  0  0  0  0  0  0  0  0  0  0
   41.4517   56.0076   45.9817 C   0  0  0  0  0  0  0  0  0  0  0  0
   38.4629   51.5621   44.1629 C   0  0  0  0  0  0  0  0  0  0  0  0
   37.1166   52.0825   43.7031 C   0  0  2  0  0  0  0  0  0  0  0  0
   44.6385   53.5569   43.8720 C   0  0  2  0  0  0  0  0  0  0  0  0
   45.3162   54.0464   42.5883 C   0  0  2  0  0  0  0  0  0  0  0  0
   45.0666   55.5206   42.3127 C   0  0  0  0  0  0  0  0  0  0  0  0
   36.5933   51.2691   42.5586 C   0  0  0  0  0  0  0  0  0  0  0  0
   34.6934   50.4184   43.9738 C   0  0  0  0  0  0  0  0  0  0  0  0
   34.9122   49.6697   41.6040 C   0  0  0  0  0  0  0  0  0  0  0  0
   37.2792   53.4744   43.3093 N   0  0  0  0  0  0  0  0  0  0  0  0
   42.6205   55.0053   44.1063 N   0  0  0  0  0  0  0  0  0  0  0  0
   35.4153   50.4637   42.7126 N   0  0  0  0  0  0  0  0  0  0  0  0
   42.4333   56.2121   46.7441 O   0  0  0  0  0  0  0  0  0  0  0  0
   40.3342   56.8268   46.0624 O   0  0  0  0  0  0  0  0  0  0  0  0
   44.8907   53.2852   41.4995 O   0  0  0  0  0  0  0  0  0  0  0  0
   37.2046   51.2883   41.4547 O   0  0  0  0  0  0  0  0  0  0  0  0
   45.0872   55.3026   45.4594 O   0  0  0  0  0  0  0  0  0  0  0  0
   39.9127   52.8541   46.0829 S   0  0  0  0  0  0  0  0  0  0  0  0
  2  1  1  6
  2  5  1  0
  3  2  1  0
  3  4  2  0
  5  6  1  0
  6 11  1  0
  7  8  1  0
  7 10  1  0
  7 12  1  1
  8  9  1  0
  8 32  1  1
  9 15  1  0
  9 25  1  0
 10 18  1  0
 10 25  1  1
 11 31  2  0
 13 14  1  0
 13 16  1  0
 13 32  1  6
 14 24  1  0
 15 27  2  0
 15 28  1  0
 16 17  1  0
 17 21  1  6
 17 24  1  0
 18 11  1  1
 18 19  1  0
 19 20  1  1
 19 29  1  0
 21 26  1  0
 21 30  2  0
 22 26  1  0
 23 26  1  0
M  END
>  <HEADER>  (1) 
    HYDROLASE                               27-NOV-18   6N6V              

>  <TITLE>  (1) 
    OXA-23 MUTANT F110A/M221A LOW PH FORM MEROPENEM COMPLEX               

>  <COMPND>  (1) 
    MOL_ID: 1;                                                            
   2 MOLECULE: BETA-LACTAMASE;                                            
   3 CHAIN: A;                                                            
   4 FRAGMENT: UNP RESIDUES 32-273;                                       
   5 SYNONYM: BETA-LACTAMASE OXA23,BLAOXA-23,CARBAPENEMASE OXA-23,CLASS D 
   6 BETA-LACTAMASE,OXA-23,OXA-23 CLASS D BETA-LACTAMASE,OXA23            
   7 CARBAPENEMASE,CLASS D BETA-LACTAMASE OXA-23;                         
   8 EC: 3.5.2.6;                                                         
   9 ENGINEERED: YES;                                                     
  10 MUTATION: YES                                                        

>  <SOURCE>  (1) 
    MOL_ID: 1;                                                            
   2 ORGANISM_SCIENTIFIC: ACINETOBACTER BAUMANNII;                        
   3 ORGANISM_TAXID: 470;                                                 
   4 GENE: ARI-1, BLA(OXA-23), BLA-OXA-23, BLA-OXA-23, BLA_1, BLA_2,      
   5 BLA_3, BLAOXA, BLAOXA-23, BLAOXA23, OXA-23, OXA-23, OXA23,           
   6 A7M90_19440, AB719_18095, ABUW_0563, AZE33_05050, AZE33_05100,       
   7 AZE33_05150, AZE33_05250, C7G90_19950, CAS83_19595, CBE85_20255,     
   8 CBI29_04474, CEJ63_03230, DV997_16620, DVA79_19285, IX87_16825,      
   9 IX87_21860, LV38_03424, NG19_0098, SAMEA104305208_04008,             
  10 SAMEA104305229_06308, SAMEA104305235_03908, SAMEA104305242_04084,    
  11 SAMEA104305268_03570, SAMEA104305271_04290, SAMEA104305299_06196,    
  12 SAMEA104305318_04148, SAMEA104305320_04271, SAMEA104305325_04185,    
  13 SAMEA104305341_03854, SAMEA104305343_03919, SAMEA104305351_03822,    
  14 SAMEA104305385_00775;                                                
  15 EXPRESSION_SYSTEM: ESCHERICHIA COLI;                                 
  16 EXPRESSION_SYSTEM_TAXID: 562                                         

>  <KEYWDS>  (1) 
    CARBAPENEMASE, ANTIBIOTIC RESISTANCE, MUTANT, HYDROLASE               

>  <EXPDTA>  (1) 
    X-RAY DIFFRACTION                                                     

>  <AUTHOR>  (1) 
    C.A.SMITH,S.B.VAKULENKO                                               

>  <REVDAT>  (1) 
   3   13-FEB-19 6N6V    1       JRNL                                     
   2   26-DEC-18 6N6V    1       JRNL                                     
   1   19-DEC-18 6N6V    0                                                

>  <JRNL>  (1) 
      AUTH   N.K.STEWART,C.A.SMITH,N.T.ANTUNES,M.TOTH,S.B.VAKULENKO       
      TITL   ROLE OF THE HYDROPHOBIC BRIDGE IN THE CARBAPENEMASE ACTIVITY 
      TITL 2 OF CLASS D BETA-LACTAMASES.                                  
      REF    ANTIMICROB. AGENTS            V.  63       2019              
      REF  2 CHEMOTHER.                                                   
      REFN                   ESSN 1098-6596                               
      PMID   30530607                                                     
      DOI    10.1128/AAC.02191-18                                         

>  <REMARK>  (1) 
   2                                                                      
   2 RESOLUTION.    1.55 ANGSTROMS.                                       
   3                                                                      
   3 REFINEMENT.                                                          
   3   PROGRAM     : PHENIX 1.14_3260                                     
   3   AUTHORS     : PAUL ADAMS,PAVEL AFONINE,VINCENT CHEN,IAN            
   3               : DAVIS,KRESHNA GOPAL,RALF GROSSE-KUNSTLEVE,           
   3               : LI-WEI HUNG,ROBERT IMMORMINO,TOM IOERGER,            
   3               : AIRLIE MCCOY,ERIK MCKEE,NIGEL MORIARTY,              
   3               : REETAL PAI,RANDY READ,JANE RICHARDSON,               
   3               : DAVID RICHARDSON,TOD ROMO,JIM SACCHETTINI,           
   3               : NICHOLAS SAUTER,JACOB SMITH,LAURENT                  
   3               : STORONI,TOM TERWILLIGER,PETER ZWART                  
   3                                                                      
   3    REFINEMENT TARGET : NULL                                          
   3                                                                      
   3  DATA USED IN REFINEMENT.                                            
   3   RESOLUTION RANGE HIGH (ANGSTROMS) : 1.55                           
   3   RESOLUTION RANGE LOW  (ANGSTROMS) : 36.96                          
   3   MIN(FOBS/SIGMA_FOBS)              : 1.360                          
   3   COMPLETENESS FOR RANGE        (%) : 99.7                           
   3   NUMBER OF REFLECTIONS             : 41131                          
   3                                                                      
   3  FIT TO DATA USED IN REFINEMENT.                                     
   3   R VALUE     (WORKING + TEST SET) : 0.173                           
   3   R VALUE            (WORKING SET) : 0.172                           
   3   FREE R VALUE                     : 0.192                           
   3   FREE R VALUE TEST SET SIZE   (%) : 5.090                           
   3   FREE R VALUE TEST SET COUNT      : 2093                            
   3                                                                      
   3  FIT TO DATA USED IN REFINEMENT (IN BINS).                           
   3   BIN  RESOLUTION RANGE  COMPL.    NWORK NFREE   RWORK  RFREE        
   3     1 36.9678 -  3.8214    1.00     2812   150  0.1597 0.1675        
   3     2  3.8214 -  3.0336    1.00     2684   130  0.1646 0.2046        
   3     3  3.0336 -  2.6502    1.00     2636   152  0.1755 0.2047        
   3     4  2.6502 -  2.4080    1.00     2633   135  0.1778 0.1906        
   3     5  2.4080 -  2.2354    1.00     2601   135  0.1696 0.1800        
   3     6  2.2354 -  2.1036    1.00     2570   142  0.1584 0.1825        
   3     7  2.1036 -  1.9983    1.00     2592   137  0.1595 0.1873        
   3     8  1.9983 -  1.9113    1.00     2612   124  0.1699 0.1742        
   3     9  1.9113 -  1.8377    1.00     2544   151  0.1763 0.1696        
   3    10  1.8377 -  1.7743    1.00     2544   154  0.1755 0.2066        
   3    11  1.7743 -  1.7188    1.00     2572   152  0.1842 0.1930        
   3    12  1.7188 -  1.6697    1.00     2557   161  0.2004 0.2309        
   3    13  1.6697 -  1.6257    1.00     2546   130  0.2229 0.2374        
   3    14  1.6257 -  1.5861    1.00     2610   105  0.2399 0.2773        
   3    15  1.5861 -  1.5500    0.99     2525   135  0.2844 0.3155        
   3                                                                      
   3  BULK SOLVENT MODELLING.                                             
   3   METHOD USED        : NULL                                          
   3   SOLVENT RADIUS     : 1.11                                          
   3   SHRINKAGE RADIUS   : 0.90                                          
   3   K_SOL              : NULL                                          
   3   B_SOL              : NULL                                          
   3                                                                      
   3  ERROR ESTIMATES.                                                    
   3   COORDINATE ERROR (MAXIMUM-LIKELIHOOD BASED)     : 0.170            
   3   PHASE ERROR (DEGREES, MAXIMUM-LIKELIHOOD BASED) : 18.260           
   3                                                                      
   3  B VALUES.                                                           
   3   FROM WILSON PLOT           (A**2) : NULL                           
   3   MEAN B VALUE      (OVERALL, A**2) : 26.24                          
   3   OVERALL ANISOTROPIC B VALUE.                                       
   3    B11 (A**2) : NULL                                                 
   3    B22 (A**2) : NULL                                                 
   3    B33 (A**2) : NULL                                                 
   3    B12 (A**2) : NULL                                                 
   3    B13 (A**2) : NULL                                                 
   3    B23 (A**2) : NULL                                                 
   3                                                                      
   3  TWINNING INFORMATION.                                               
   3   FRACTION: NULL                                                     
   3   OPERATOR: NULL                                                     
   3                                                                      
   3  DEVIATIONS FROM IDEAL VALUES.                                       
   3                 RMSD          COUNT                                  
   3   BOND      :   NULL           NULL                                  
   3   ANGLE     :   NULL           NULL                                  
   3   CHIRALITY :   NULL           NULL                                  
   3   PLANARITY :   NULL           NULL                                  
   3   DIHEDRAL  :   NULL           NULL                                  
   3                                                                      
   3  TLS DETAILS                                                         
   3   NUMBER OF TLS GROUPS  : 4                                          
   3   TLS GROUP : 1                                                      
   3    SELECTION: CHAIN 'A' AND (RESID 32 THROUGH 91 )                   
   3    ORIGIN FOR THE GROUP (A):  20.2512  18.5799  -7.7838              
   3    T TENSOR                                                          
   3      T11:   0.1433 T22:   0.1679                                     
   3      T33:   0.1216 T12:   0.0107                                     
   3      T13:  -0.0118 T23:  -0.0136                                     
   3    L TENSOR                                                          
   3      L11:   1.9052 L22:   0.8235                                     
   3      L33:   2.0507 L12:  -0.3795                                     
   3      L13:  -0.7210 L23:   0.0557                                     
   3    S TENSOR                                                          
   3      S11:   0.1055 S12:   0.3038 S13:   0.1399                       
   3      S21:  -0.2041 S22:  -0.0712 S23:  -0.0505                       
   3      S31:  -0.0477 S32:   0.0578 S33:   0.0004                       
   3   TLS GROUP : 2                                                      
   3    SELECTION: CHAIN 'A' AND (RESID 92 THROUGH 150 )                  
   3    ORIGIN FOR THE GROUP (A):  12.6364  11.4524  15.2507              
   3    T TENSOR                                                          
   3      T11:   0.2517 T22:   0.2137                                     
   3      T33:   0.1442 T12:   0.0357                                     
   3      T13:  -0.0200 T23:   0.0010                                     
   3    L TENSOR                                                          
   3      L11:   0.8043 L22:   1.5611                                     
   3      L33:   1.9574 L12:  -0.4451                                     
   3      L13:  -0.7060 L23:  -0.1685                                     
   3    S TENSOR                                                          
   3      S11:  -0.0865 S12:  -0.2298 S13:  -0.1104                       
   3      S21:   0.2261 S22:   0.0688 S23:  -0.1467                       
   3      S31:   0.3595 S32:   0.2302 S33:  -0.0005                       
   3   TLS GROUP : 3                                                      
   3    SELECTION: CHAIN 'A' AND (RESID 151 THROUGH 208 )                 
   3    ORIGIN FOR THE GROUP (A):  11.7590  16.1877   3.6849              
   3    T TENSOR                                                          
   3      T11:   0.1148 T22:   0.1082                                     
   3      T33:   0.0864 T12:  -0.0135                                     
   3      T13:  -0.0183 T23:   0.0000                                     
   3    L TENSOR                                                          
   3      L11:   2.2731 L22:   1.0402                                     
   3      L33:   2.5948 L12:  -0.2024                                     
   3      L13:  -0.1898 L23:   0.2449                                     
   3    S TENSOR                                                          
   3      S11:   0.0125 S12:  -0.0471 S13:  -0.0494                       
   3      S21:   0.1122 S22:   0.0029 S23:   0.0364                       
   3      S31:   0.1926 S32:  -0.0431 S33:   0.0031                       
   3   TLS GROUP : 4                                                      
   3    SELECTION: CHAIN 'A' AND (RESID 209 THROUGH 273 )                 
   3    ORIGIN FOR THE GROUP (A):  24.8348  21.4776  -1.9537              
   3    T TENSOR                                                          
   3      T11:   0.1069 T22:   0.1167                                     
   3      T33:   0.1520 T12:  -0.0066                                     
   3      T13:   0.0014 T23:  -0.0198                                     
   3    L TENSOR                                                          
   3      L11:   1.9568 L22:   0.8197                                     
   3      L33:   1.4015 L12:  -0.3803                                     
   3      L13:   0.1543 L23:  -0.1321                                     
   3    S TENSOR                                                          
   3      S11:   0.0438 S12:   0.0746 S13:   0.1840                       
   3      S21:   0.0335 S22:  -0.0614 S23:  -0.2172                       
   3      S31:  -0.0513 S32:   0.0918 S33:  -0.0006                       
   3                                                                      
   3  NCS DETAILS                                                         
   3   NUMBER OF NCS GROUPS : NULL                                        
   3                                                                      
   3  OTHER REFINEMENT REMARKS: NULL                                      
   4                                                                      
   4 6N6V COMPLIES WITH FORMAT V. 3.30, 13-JUL-11                         
 100                                                                      
 100 THIS ENTRY HAS BEEN PROCESSED BY RCSB ON 27-NOV-18.                  
 100 THE DEPOSITION ID IS D_1000238283.                                   
 200                                                                      
 200 EXPERIMENTAL DETAILS                                                 
 200  EXPERIMENT TYPE                : X-RAY DIFFRACTION                  
 200  DATE OF DATA COLLECTION        : 21-JUL-18                          
 200  TEMPERATURE           (KELVIN) : 100                                
 200  PH                             : 4.1                                
 200  NUMBER OF CRYSTALS USED        : 1                                  
 200                                                                      
 200  SYNCHROTRON              (Y/N) : Y                                  
 200  RADIATION SOURCE               : SSRL                               
 200  BEAMLINE                       : BL9-2                              
 200  X-RAY GENERATOR MODEL          : NULL                               
 200  MONOCHROMATIC OR LAUE    (M/L) : M                                  
 200  WAVELENGTH OR RANGE        (A) : 0.9795                             
 200  MONOCHROMATOR                  : LIQUID NITROGEN-COOLED DOUBLE      
 200                                   CRYSTAL SI(111)                    
 200  OPTICS                         : NULL                               
 200                                                                      
 200  DETECTOR TYPE                  : PIXEL                              
 200  DETECTOR MANUFACTURER          : DECTRIS PILATUS 6M                 
 200  INTENSITY-INTEGRATION SOFTWARE : XDS                                
 200  DATA SCALING SOFTWARE          : AIMLESS                            
 200                                                                      
 200  NUMBER OF UNIQUE REFLECTIONS   : 41640                              
 200  RESOLUTION RANGE HIGH      (A) : 1.550                              
 200  RESOLUTION RANGE LOW       (A) : 38.500                             
 200  REJECTION CRITERIA  (SIGMA(I)) : NULL                               
 200                                                                      
 200 OVERALL.                                                             
 200  COMPLETENESS FOR RANGE     (%) : 99.6                               
 200  DATA REDUNDANCY                : 7.100                              
 200  R MERGE                    (I) : NULL                               
 200  R SYM                      (I) : NULL                               
 200  <I/SIGMA(I)> FOR THE DATA SET  : 17.4000                            
 200                                                                      
 200 IN THE HIGHEST RESOLUTION SHELL.                                     
 200  HIGHEST RESOLUTION SHELL, RANGE HIGH (A) : 1.55                     
 200  HIGHEST RESOLUTION SHELL, RANGE LOW  (A) : 1.58                     
 200  COMPLETENESS FOR SHELL     (%) : NULL                               
 200  DATA REDUNDANCY IN SHELL       : NULL                               
 200  R MERGE FOR SHELL          (I) : NULL                               
 200  R SYM FOR SHELL            (I) : NULL                               
 200  <I/SIGMA(I)> FOR SHELL         : NULL                               
 200                                                                      
 200 DIFFRACTION PROTOCOL: SINGLE WAVELENGTH                              
 200 METHOD USED TO DETERMINE THE STRUCTURE: MOLECULAR REPLACEMENT        
 200 SOFTWARE USED: MOLREP                                                
 200 STARTING MODEL: PDB ENTRY 4JF5                                       
 200                                                                      
 200 REMARK: NULL                                                         
 280                                                                      
 280 CRYSTAL                                                              
 280 SOLVENT CONTENT, VS   (%): 51.42                                     
 280 MATTHEWS COEFFICIENT, VM (ANGSTROMS**3/DA): 2.53                     
 280                                                                      
 280 CRYSTALLIZATION CONDITIONS: 0.06 M CITRIC ACID, 0.04 M BIS-TRIS      
 280  PROPANE, PH 4.1, 16% PEG3350, VAPOR DIFFUSION, SITTING DROP,        
 280  TEMPERATURE 293K                                                    
 290                                                                      
 290 CRYSTALLOGRAPHIC SYMMETRY                                            
 290 SYMMETRY OPERATORS FOR SPACE GROUP: P 21 21 2                        
 290                                                                      
 290      SYMOP   SYMMETRY                                                
 290     NNNMMM   OPERATOR                                                
 290       1555   X,Y,Z                                                   
 290       2555   -X,-Y,Z                                                 
 290       3555   -X+1/2,Y+1/2,-Z                                         
 290       4555   X+1/2,-Y+1/2,-Z                                         
 290                                                                      
 290     WHERE NNN -> OPERATOR NUMBER                                     
 290           MMM -> TRANSLATION VECTOR                                  
 290                                                                      
 290 CRYSTALLOGRAPHIC SYMMETRY TRANSFORMATIONS                            
 290 THE FOLLOWING TRANSFORMATIONS OPERATE ON THE ATOM/HETATM             
 290 RECORDS IN THIS ENTRY TO PRODUCE CRYSTALLOGRAPHICALLY                
 290 RELATED MOLECULES.                                                   
 290   SMTRY1   1  1.000000  0.000000  0.000000        0.00000            
 290   SMTRY2   1  0.000000  1.000000  0.000000        0.00000            
 290   SMTRY3   1  0.000000  0.000000  1.000000        0.00000            
 290   SMTRY1   2 -1.000000  0.000000  0.000000        0.00000            
 290   SMTRY2   2  0.000000 -1.000000  0.000000        0.00000            
 290   SMTRY3   2  0.000000  0.000000  1.000000        0.00000            
 290   SMTRY1   3 -1.000000  0.000000  0.000000       68.05700            
 290   SMTRY2   3  0.000000  1.000000  0.000000       22.00600            
 290   SMTRY3   3  0.000000  0.000000 -1.000000        0.00000            
 290   SMTRY1   4  1.000000  0.000000  0.000000       68.05700            
 290   SMTRY2   4  0.000000 -1.000000  0.000000       22.00600            
 290   SMTRY3   4  0.000000  0.000000 -1.000000        0.00000            
 290                                                                      
 290 REMARK: NULL                                                         
 300                                                                      
 300 BIOMOLECULE: 1                                                       
 300 SEE REMARK 350 FOR THE AUTHOR PROVIDED AND/OR PROGRAM                
 300 GENERATED ASSEMBLY INFORMATION FOR THE STRUCTURE IN                  
 300 THIS ENTRY. THE REMARK MAY ALSO PROVIDE INFORMATION ON               
 300 BURIED SURFACE AREA.                                                 
 350                                                                      
 350 COORDINATES FOR A COMPLETE MULTIMER REPRESENTING THE KNOWN           
 350 BIOLOGICALLY SIGNIFICANT OLIGOMERIZATION STATE OF THE                
 350 MOLECULE CAN BE GENERATED BY APPLYING BIOMT TRANSFORMATIONS          
 350 GIVEN BELOW.  BOTH NON-CRYSTALLOGRAPHIC AND                          
 350 CRYSTALLOGRAPHIC OPERATIONS ARE GIVEN.                               
 350                                                                      
 350 BIOMOLECULE: 1                                                       
 350 AUTHOR DETERMINED BIOLOGICAL UNIT: MONOMERIC                         
 350 SOFTWARE DETERMINED QUATERNARY STRUCTURE: MONOMERIC                  
 350 SOFTWARE USED: PISA                                                  
 350 TOTAL BURIED SURFACE AREA: 0 ANGSTROM**2                             
 350 SURFACE AREA OF THE COMPLEX: 10500 ANGSTROM**2                       
 350 CHANGE IN SOLVENT FREE ENERGY: 0.0 KCAL/MOL                          
 350 APPLY THE FOLLOWING TO CHAINS: A                                     
 350   BIOMT1   1  1.000000  0.000000  0.000000        0.00000            
 350   BIOMT2   1  0.000000  1.000000  0.000000        0.00000            
 350   BIOMT3   1  0.000000  0.000000  1.000000        0.00000            
 465                                                                      
 465 MISSING RESIDUES                                                     
 465 THE FOLLOWING RESIDUES WERE NOT LOCATED IN THE                       
 465 EXPERIMENT. (M=MODEL NUMBER; RES=RESIDUE NAME; C=CHAIN               
 465 IDENTIFIER; SSSEQ=SEQUENCE NUMBER; I=INSERTION CODE.)                
 465                                                                      
 465   M RES C SSSEQI                                                     
 465     TRP A   103                                                      
 465     LYS A   104                                                      
 465     GLY A   105                                                      
 465     GLU A   106                                                      
 465     LYS A   107                                                      
 465     ARG A   108                                                      
 465     SER A   109                                                      
 465     ALA A   110                                                      
 465     THR A   111                                                      
 465     ALA A   112                                                      
 465     TRP A   113                                                      
 465     GLU A   114                                                      
 470                                                                      
 470 MISSING ATOM                                                         
 470 THE FOLLOWING RESIDUES HAVE MISSING ATOMS (M=MODEL NUMBER;           
 470 RES=RESIDUE NAME; C=CHAIN IDENTIFIER; SSEQ=SEQUENCE NUMBER;          
 470 I=INSERTION CODE):                                                   
 470   M RES CSSEQI  ATOMS                                                
 470     LYS A  59    CG   CD   CE   NZ                                   
 470     LYS A  60    CG   CD   CE   NZ                                   
 500                                                                      
 500 GEOMETRY AND STEREOCHEMISTRY                                         
 500 SUBTOPIC: TORSION ANGLES                                             
 500                                                                      
 500 TORSION ANGLES OUTSIDE THE EXPECTED RAMACHANDRAN REGIONS:            
 500 (M=MODEL NUMBER; RES=RESIDUE NAME; C=CHAIN IDENTIFIER;               
 500 SSEQ=SEQUENCE NUMBER; I=INSERTION CODE).                             
 500                                                                      
 500 STANDARD TABLE:                                                      
 500 FORMAT:(10X,I3,1X,A3,1X,A1,I4,A1,4X,F7.2,3X,F7.2)                    
 500                                                                      
 500 EXPECTED VALUES: GJ KLEYWEGT AND TA JONES (1996). PHI/PSI-           
 500 CHOLOGY: RAMACHANDRAN REVISITED. STRUCTURE 4, 1395 - 1400            
 500                                                                      
 500  M RES CSSEQI        PSI       PHI                                   
 500    HIS A  36       98.33    -67.44                                   
 500    THR A  57     -168.11   -102.94                                   
 500    LYS A  59      -46.77     80.74                                   
 500    ALA A  78     -138.55     52.35                                   
 500    ASN A 163        6.54   -152.04                                   
 500                                                                      
 500 REMARK: NULL                                                         
 800                                                                      
 800 SITE                                                                 
 800 SITE_IDENTIFIER: AC1                                                 
 800 EVIDENCE_CODE: SOFTWARE                                              
 800 SITE_DESCRIPTION: binding site for residue KE1 A 301                 

>  <DBREF>  (1) 
 6N6V A   32   273  UNP    Q9L4P2   Q9L4P2_ACIBA    32    273             

>  <SEQADV>  (1) 
 6N6V ALA A  110  UNP  Q9L4P2    PHE   110 ENGINEERED MUTATION            
 6N6V ALA A  221  UNP  Q9L4P2    MET   221 ENGINEERED MUTATION            

>  <SEQRES>  (1) 
   1 A  242  ILE VAL GLN GLY HIS ASN GLN VAL ILE HIS GLN TYR PHE          
   2 A  242  ASP GLU LYS ASN THR SER GLY VAL LEU VAL ILE GLN THR          
   3 A  242  ASP LYS LYS ILE ASN LEU TYR GLY ASN ALA LEU SER ARG          
   4 A  242  ALA ASN THR GLU TYR VAL PRO ALA SER THR PHE LYS MET          
   5 A  242  LEU ASN ALA LEU ILE GLY LEU GLU ASN GLN LYS THR ASP          
   6 A  242  ILE ASN GLU ILE PHE LYS TRP LYS GLY GLU LYS ARG SER          
   7 A  242  ALA THR ALA TRP GLU LYS ASP MET THR LEU GLY GLU ALA          
   8 A  242  MET LYS LEU SER ALA VAL PRO VAL TYR GLN GLU LEU ALA          
   9 A  242  ARG ARG ILE GLY LEU ASP LEU MET GLN LYS GLU VAL LYS          
  10 A  242  ARG ILE GLY PHE GLY ASN ALA GLU ILE GLY GLN GLN VAL          
  11 A  242  ASP ASN PHE TRP LEU VAL GLY PRO LEU LYS VAL THR PRO          
  12 A  242  ILE GLN GLU VAL GLU PHE VAL SER GLN LEU ALA HIS THR          
  13 A  242  GLN LEU PRO PHE SER GLU LYS VAL GLN ALA ASN VAL LYS          
  14 A  242  ASN MET LEU LEU LEU GLU GLU SER ASN GLY TYR LYS ILE          
  15 A  242  PHE GLY LYS THR GLY TRP ALA ALA ASP ILE LYS PRO GLN          
  16 A  242  VAL GLY TRP LEU THR GLY TRP VAL GLU GLN PRO ASP GLY          
  17 A  242  LYS ILE VAL ALA PHE ALA LEU ASN MET GLU MET ARG SER          
  18 A  242  GLU MET PRO ALA SER ILE ARG ASN GLU LEU LEU MET LYS          
  19 A  242  SER LEU LYS GLN LEU ASN ILE ILE                              

>  <HET>  (1) 
 KE1  A 301      26                                                       

>  <HETNAM>  (1) 
     KE1 MEROPENEM, BOUND FORM                                            

>  <HETSYN>  (1) 
     KE1 (4R,5S)-3-{[(3R,5R)-5-(DIMETHYLCARBAMOYL)PYRROLIDIN-3-           
   2 KE1  YL]SULFANYL}-5-[(2S,3R)-3-HYDROXY-1-OXOBUTAN-2-YL]-4-           
   3 KE1  METHYL-4,5-DIHYDRO-1H-PYRROLE-2-CARBOXYLIC ACID                 

>  <FORMUL>  (1) 
   2  KE1    C17 H27 N3 O5 S                                              
   3  HOH   *166(H2 O)                                                    

>  <HELIX>  (1) 
   1 AA1 ASN A   37  LYS A   47  1                                  11    
   2 AA2 ALA A   67  THR A   73  5                                   7    
   3 AA3 PRO A   77  THR A   80  5                                   4    
   4 AA4 PHE A   81  ASN A   92  1                                  12    
   5 AA5 THR A  118  LEU A  125  1                                   8    
   6 AA6 PRO A  129  GLY A  139  1                                  11    
   7 AA7 GLY A  139  GLY A  151  1                                  13    
   8 AA8 THR A  173  HIS A  186  1                                  14    
   9 AA9 SER A  192  MET A  202  1                                  11    
  10 AB1 SER A  257  LEU A  270  1                                  14    

>  <SHEET>  (1) 
   1 AA1 7 VAL A  33  GLN A  34  0                                        
   2 AA1 7 ILE A  61  GLY A  65  1  O  ILE A  61   N  VAL A  33           
   3 AA1 7 GLY A  51  GLN A  56 -1  N  LEU A  53   O  TYR A  64           
   4 AA1 7 ILE A 241  MET A 250 -1  O  ALA A 245   N  VAL A  54           
   5 AA1 7 GLN A 226  GLU A 235 -1  N  VAL A 234   O  VAL A 242           
   6 AA1 7 TYR A 211  ALA A 220 -1  N  LYS A 212   O  GLU A 235           
   7 AA1 7 LEU A 204  SER A 208 -1  N  LEU A 205   O  ILE A 213           

>  <LINK>  (1) 
       OG  SER A  79                 C7  KE1 A 301     1555   1555  1.40  

>  <CISPEP>  (1) 
   1 GLY A  168    PRO A  169          0        10.64                     
   2 LYS A  224    PRO A  225          0        -5.27                     

>  <SITE>  (1) 
   1 AC1  9 ALA A  78  SER A  79  SER A 126  LEU A 166                    
   2 AC1  9 THR A 217  GLY A 218  TRP A 219  ARG A 259                    
   3 AC1  9 HOH A 483                                                     

>  <ORIGX1>  (1) 
      1.000000  0.000000  0.000000        0.00000                         

>  <ORIGX2>  (1) 
      0.000000  1.000000  0.000000        0.00000                         

>  <ORIGX3>  (1) 
      0.000000  0.000000  1.000000        0.00000                         

>  <SCALE1>  (1) 
      0.007347  0.000000  0.000000        0.00000                         

>  <SCALE2>  (1) 
      0.000000  0.022721  0.000000        0.00000                         

>  <SCALE3>  (1) 
      0.000000  0.000000  0.021635        0.00000                         

>  <ANISOU>  (1) 
  366  N   SER A  79     1903   1915   1863    197   -168   -293       N  
  367  CA  SER A  79     1840   1959   1845    170   -189   -292       C  
  368  C   SER A  79     1779   1901   1832     94   -213   -327       C  
  369  O   SER A  79     1696   1872   1778     71   -224   -335       O  
  370  CB  SER A  79     1811   2111   1845    203   -201   -291       C  
  371  OG  SER A  79     2425   2769   2418    291   -183   -244       O  

>  <MASTER>  (1) 
      322    0    1   10    7    0    3    6 2007    1   27   19          

$$$$
