start_structures/Ligand_Substrate/Ligand_Complex_Stripped/MXC_3FYZ.pdb
     RDKit          3D

 35 36  0  0  1  0  0  0  0  0999 V2000
   48.7970   51.8770   46.3360 N   0  0  0  0  0  0  0  0  0  0  0  0
   47.4475   51.3815   46.5443 C   0  0  2  0  0  0  0  0  0  0  0  0
   47.4044   49.8864   46.4403 C   0  0  0  0  0  0  0  0  0  0  0  0
   46.4740   49.2680   46.9365 O   0  0  0  0  0  0  0  0  0  0  0  0
   46.5150   52.0026   45.5111 C   0  0  0  0  0  0  0  0  0  0  0  0
   46.1621   53.3346   45.8718 O   0  0  0  0  0  0  0  0  0  0  0  0
   44.4851   59.5078   47.7613 C   0  0  0  0  0  0  0  0  0  0  0  0
   45.1833   58.5581   46.9924 C   0  0  0  0  0  0  0  0  0  0  0  0
   44.9578   57.2094   47.2559 C   0  0  0  0  0  0  0  0  0  0  0  0
   45.5280   56.1261   46.6088 C   0  0  0  0  0  0  0  0  0  0  0  0
   44.9636   55.0180   47.2373 C   0  0  0  0  0  0  0  0  0  0  0  0
   44.0996   55.4780   48.2207 C   0  0  0  0  0  0  0  0  0  0  0  0
   43.3988   57.7035   48.9790 C   0  0  0  0  0  0  0  0  0  0  0  0
   43.5868   59.0738   48.7579 C   0  0  0  0  0  0  0  0  0  0  0  0
   44.6884   60.9476   47.5239 C   0  0  0  0  0  0  0  0  0  0  0  0
   45.2538   53.6175   46.8958 C   0  0  0  0  0  0  0  0  0  0  0  0
   42.5192   55.1189   50.2048 C   0  0  2  0  0  0  0  0  0  0  0  0
   43.4061   55.3493   51.3958 C   0  0  0  0  0  0  0  0  0  0  0  0
   41.3342   54.1725   50.4933 C   0  0  2  0  0  0  0  0  0  0  0  0
   40.5169   54.7252   51.6547 C   0  0  0  0  0  0  0  0  0  0  0  0
   41.8421   52.7674   50.8396 C   0  0  0  0  0  0  0  0  0  0  0  0
   40.9911   50.5544   51.4942 C   0  0  0  0  0  0  0  0  0  0  0  0
   44.1004   56.8236   48.2191 N   0  0  0  0  0  0  0  0  0  0  0  0
   43.9830   61.9135   48.2982 N   0  0  0  0  0  0  0  0  0  0  0  0
   43.3140   54.6404   49.0789 N   0  0  0  0  0  0  0  0  0  0  0  0
   42.3084   50.0100   51.5027 N   0  0  0  0  0  0  0  0  0  0  0  0
   44.6846   52.6809   47.5207 O   0  0  0  0  0  0  0  0  0  0  0  0
   45.4889   61.3390   46.6332 O   0  0  0  0  0  0  0  0  0  0  0  0
   43.2976   56.4134   52.0585 O   0  0  0  0  0  0  0  0  0  0  0  0
   44.3308   54.3873   51.7844 O   0  0  0  0  0  0  0  0  0  0  0  0
   41.0306   53.0417   47.9602 O   0  0  0  0  0  0  0  0  0  0  0  0
   38.8768   53.2586   49.5268 O   0  0  0  0  0  0  0  0  0  0  0  0
   40.7715   51.8923   51.1709 O   0  0  0  0  0  0  0  0  0  0  0  0
   40.0130   49.8175   51.7813 O   0  0  0  0  0  0  0  0  0  0  0  0
   40.2586   54.1204   49.0285 S   0  0  0  0  0  0  0  0  0  0  0  0
  2  1  1  6
  2  3  1  0
  2  5  1  0
  3  4  2  0
  6  5  1  0
  7  8  2  0
  7 14  1  0
  7 15  1  0
  8  9  1  0
  9 10  2  0
  9 23  1  0
 10 11  1  0
 11 12  2  0
 11 16  1  0
 12 23  1  0
 12 25  1  0
 13 14  2  0
 13 23  1  0
 15 24  1  0
 15 28  2  0
 16 27  2  0
 16  6  1  0
 17 18  1  0
 17 19  1  0
 17 25  1  1
 18 29  2  0
 18 30  1  0
 19 20  1  1
 19 21  1  0
 19 35  1  0
 21 33  1  0
 22 26  1  0
 22 33  1  0
 22 34  2  0
 31 35  1  0
 32 35  1  0
M  END
>  <HEADER>  (1) 
    HYDROLASE                               23-JAN-09   3FYZ              

>  <TITLE>  (1) 
    OXA-24 BETA-LACTAMASE COMPLEX WITH SA4-17 INHIBITOR                   

>  <COMPND>  (1) 
    MOL_ID: 1;                                                            
   2 MOLECULE: BETA-LACTAMASE OXA-24;                                     
   3 CHAIN: A;                                                            
   4 FRAGMENT: RESIDUES 32-275;                                           
   5 SYNONYM: BETA-LACTAMASE OXA-33, OXA40, CARBAPENEM-HYDROLYZING BETA-  
   6 LACTAMASE OXA-40, BETA-LACTAMASE;                                    
   7 EC: 3.5.2.6;                                                         
   8 ENGINEERED: YES                                                      

>  <SOURCE>  (1) 
    MOL_ID: 1;                                                            
   2 ORGANISM_SCIENTIFIC: ACINETOBACTER BAUMANNII;                        
   3 ORGANISM_TAXID: 470;                                                 
   4 GENE: BLAOXA-33, BLA-OXA-40, OXA-24, OXA40;                          
   5 EXPRESSION_SYSTEM: ESCHERICHIA COLI;                                 
   6 EXPRESSION_SYSTEM_TAXID: 562;                                        
   7 EXPRESSION_SYSTEM_STRAIN: BL21DE3;                                   
   8 EXPRESSION_SYSTEM_PLASMID: PGEX-6P-1                                 

>  <KEYWDS>  (1) 
    B-LACTAMASES, ENZYME MECHANISM, CARBAPENEM, INHIBITORS, HYDROLASE     

>  <EXPDTA>  (1) 
    X-RAY DIFFRACTION                                                     

>  <AUTHOR>  (1) 
    A.ROMERO,E.SANTILLANA                                                 

>  <REVDAT>  (1) 
   2   13-OCT-10 3FYZ    1       JRNL                                     
   1   09-FEB-10 3FYZ    0                                                

>  <JRNL>  (1) 
      AUTH   G.BOU,E.SANTILLANA,A.SHERI,A.BECEIRO,J.M.SAMPSON,M.KALP,     
      AUTH 2 C.R.BETHEL,A.M.DISTLER,S.M.DRAWZ,S.R.PAGADALA,               
      AUTH 3 F.VAN DEN AKKER,R.A.BONOMO,A.ROMERO,J.D.BUYNAK               
      TITL   DESIGN, SYNTHESIS, AND CRYSTAL STRUCTURES OF                 
      TITL 2 6-ALKYLIDENE-2'-SUBSTITUTED PENICILLANIC ACID SULFONES AS    
      TITL 3 POTENT INHIBITORS OF ACINETOBACTER BAUMANNII OXA-24          
      TITL 4 CARBAPENEMASE.                                               
      REF    J.AM.CHEM.SOC.                V. 132 13320 2010              
      REFN                   ISSN 0002-7863                               
      PMID   20822105                                                     
      DOI    10.1021/JA104092Z                                            

>  <REMARK>  (1) 
   1                                                                      
   1 REFERENCE 1                                                          
   1  AUTH   E.SANTILLANA,A.BECEIRO,G.BOU,A.ROMERO                        
   1  TITL   CRYSTAL STRUCTURE OF THE CARBAPENEMASE OXA-24 REVEALS        
   1  TITL 2 INSIGHTS INTO THE MECHANISM OF CARBAPENEM HYDROLYSIS.        
   1  REF    PROC.NATL.ACAD.SCI.USA        V. 104  5354 2007              
   1  REFN                   ISSN 0027-8424                               
   1  PMID   17374723                                                     
   1  DOI    10.1073/PNAS.0607557104                                      
   2                                                                      
   2 RESOLUTION.    2.10 ANGSTROMS.                                       
   3                                                                      
   3 REFINEMENT.                                                          
   3   PROGRAM     : CNS 1.2                                              
   3   AUTHORS     : BRUNGER,ADAMS,CLORE,DELANO,GROS,GROSSE-              
   3               : KUNSTLEVE,JIANG,KUSZEWSKI,NILGES,PANNU,              
   3               : READ,RICE,SIMONSON,WARREN                            
   3                                                                      
   3  REFINEMENT TARGET : ENGH & HUBER                                    
   3                                                                      
   3  DATA USED IN REFINEMENT.                                            
   3   RESOLUTION RANGE HIGH (ANGSTROMS) : 2.10                           
   3   RESOLUTION RANGE LOW  (ANGSTROMS) : 54.72                          
   3   DATA CUTOFF            (SIGMA(F)) : 0.000                          
   3   DATA CUTOFF HIGH         (ABS(F)) : NULL                           
   3   DATA CUTOFF LOW          (ABS(F)) : NULL                           
   3   COMPLETENESS (WORKING+TEST)   (%) : 98.7                           
   3   NUMBER OF REFLECTIONS             : 26265                          
   3                                                                      
   3  FIT TO DATA USED IN REFINEMENT.                                     
   3   CROSS-VALIDATION METHOD          : THROUGHOUT                      
   3   FREE R VALUE TEST SET SELECTION  : RANDOM                          
   3   R VALUE            (WORKING SET) : 0.232                           
   3   FREE R VALUE                     : 0.255                           
   3   FREE R VALUE TEST SET SIZE   (%) : NULL                            
   3   FREE R VALUE TEST SET COUNT      : 1271                            
   3   ESTIMATED ERROR OF FREE R VALUE  : NULL                            
   3                                                                      
   3  FIT IN THE HIGHEST RESOLUTION BIN.                                  
   3   TOTAL NUMBER OF BINS USED           : NULL                         
   3   BIN RESOLUTION RANGE HIGH       (A) : 2.10                         
   3   BIN RESOLUTION RANGE LOW        (A) : 2.23                         
   3   BIN COMPLETENESS (WORKING+TEST) (%) : 93.50                        
   3   REFLECTIONS IN BIN    (WORKING SET) : NULL                         
   3   BIN R VALUE           (WORKING SET) : 0.3730                       
   3   BIN FREE R VALUE                    : 0.3800                       
   3   BIN FREE R VALUE TEST SET SIZE  (%) : NULL                         
   3   BIN FREE R VALUE TEST SET COUNT     : 206                          
   3   ESTIMATED ERROR OF BIN FREE R VALUE : 0.026                        
   3                                                                      
   3  NUMBER OF NON-HYDROGEN ATOMS USED IN REFINEMENT.                    
   3   PROTEIN ATOMS            : 1939                                    
   3   NUCLEIC ACID ATOMS       : 0                                       
   3   HETEROGEN ATOMS          : 42                                      
   3   SOLVENT ATOMS            : 79                                      
   3                                                                      
   3  B VALUES.                                                           
   3   FROM WILSON PLOT           (A**2) : 28.45                          
   3   MEAN B VALUE      (OVERALL, A**2) : NULL                           
   3   OVERALL ANISOTROPIC B VALUE.                                       
   3    B11 (A**2) : NULL                                                 
   3    B22 (A**2) : NULL                                                 
   3    B33 (A**2) : NULL                                                 
   3    B12 (A**2) : NULL                                                 
   3    B13 (A**2) : NULL                                                 
   3    B23 (A**2) : NULL                                                 
   3                                                                      
   3  ESTIMATED COORDINATE ERROR.                                         
   3   ESD FROM LUZZATI PLOT        (A) : 0.29                            
   3   ESD FROM SIGMAA              (A) : 0.43                            
   3   LOW RESOLUTION CUTOFF        (A) : 5.00                            
   3                                                                      
   3  CROSS-VALIDATED ESTIMATED COORDINATE ERROR.                         
   3   ESD FROM C-V LUZZATI PLOT    (A) : 0.31                            
   3   ESD FROM C-V SIGMAA          (A) : 0.48                            
   3                                                                      
   3  RMS DEVIATIONS FROM IDEAL VALUES.                                   
   3   BOND LENGTHS                 (A) : 0.007                           
   3   BOND ANGLES            (DEGREES) : 1.20                            
   3   DIHEDRAL ANGLES        (DEGREES) : 22.90                           
   3   IMPROPER ANGLES        (DEGREES) : 0.86                            
   3                                                                      
   3  ISOTROPIC THERMAL MODEL : NULL                                      
   3                                                                      
   3  ISOTROPIC THERMAL FACTOR RESTRAINTS.    RMS    SIGMA                
   3   MAIN-CHAIN BOND              (A**2) : NULL  ; NULL                 
   3   MAIN-CHAIN ANGLE             (A**2) : NULL  ; NULL                 
   3   SIDE-CHAIN BOND              (A**2) : NULL  ; NULL                 
   3   SIDE-CHAIN ANGLE             (A**2) : NULL  ; NULL                 
   3                                                                      
   3  BULK SOLVENT MODELING.                                              
   3   METHOD USED : NULL                                                 
   3   KSOL        : NULL                                                 
   3   BSOL        : NULL                                                 
   3                                                                      
   3  NCS MODEL : NULL                                                    
   3                                                                      
   3  NCS RESTRAINTS.                         RMS   SIGMA/WEIGHT          
   3   GROUP  1  POSITIONAL            (A) : NULL  ; NULL                 
   3   GROUP  1  B-FACTOR           (A**2) : NULL  ; NULL                 
   3                                                                      
   3  PARAMETER FILE  1  : NULL                                           
   3  TOPOLOGY FILE  1   : NULL                                           
   3                                                                      
   3  OTHER REFINEMENT REMARKS: NULL                                      
   4                                                                      
   4 3FYZ COMPLIES WITH FORMAT V. 3.20, 01-DEC-08                         
 100                                                                      
 100 THIS ENTRY HAS BEEN PROCESSED BY PDBJ ON 28-JAN-09.                  
 100 THE RCSB ID CODE IS RCSB051213.                                      
 200                                                                      
 200 EXPERIMENTAL DETAILS                                                 
 200  EXPERIMENT TYPE                : X-RAY DIFFRACTION                  
 200  DATE OF DATA COLLECTION        : 19-FEB-08                          
 200  TEMPERATURE           (KELVIN) : 100                                
 200  PH                             : 7.5                                
 200  NUMBER OF CRYSTALS USED        : 1                                  
 200                                                                      
 200  SYNCHROTRON              (Y/N) : Y                                  
 200  RADIATION SOURCE               : ESRF                               
 200  BEAMLINE                       : ID14-1                             
 200  X-RAY GENERATOR MODEL          : NULL                               
 200  MONOCHROMATIC OR LAUE    (M/L) : M                                  
 200  WAVELENGTH OR RANGE        (A) : 0.93400                            
 200  MONOCHROMATOR                  : SINGLE SILICON (111)               
 200  OPTICS                         : NULL                               
 200                                                                      
 200  DETECTOR TYPE                  : AREA DETECTOR                      
 200  DETECTOR MANUFACTURER          : ADSC QUANTUM 210                   
 200  INTENSITY-INTEGRATION SOFTWARE : MOSFLM                             
 200  DATA SCALING SOFTWARE          : SCALA                              
 200                                                                      
 200  NUMBER OF UNIQUE REFLECTIONS   : 26313                              
 200  RESOLUTION RANGE HIGH      (A) : 2.100                              
 200  RESOLUTION RANGE LOW       (A) : 72.700                             
 200  REJECTION CRITERIA  (SIGMA(I)) : 0.000                              
 200                                                                      
 200 OVERALL.                                                             
 200  COMPLETENESS FOR RANGE     (%) : 99.0                               
 200  DATA REDUNDANCY                : 7.300                              
 200  R MERGE                    (I) : 0.10100                            
 200  R SYM                      (I) : NULL                               
 200  <I/SIGMA(I)> FOR THE DATA SET  : 14.8000                            
 200                                                                      
 200 IN THE HIGHEST RESOLUTION SHELL.                                     
 200  HIGHEST RESOLUTION SHELL, RANGE HIGH (A) : 2.10                     
 200  HIGHEST RESOLUTION SHELL, RANGE LOW  (A) : 2.21                     
 200  COMPLETENESS FOR SHELL     (%) : 93.9                               
 200  DATA REDUNDANCY IN SHELL       : 4.40                               
 200  R MERGE FOR SHELL          (I) : 0.61600                            
 200  R SYM FOR SHELL            (I) : NULL                               
 200  <I/SIGMA(I)> FOR SHELL         : 2.300                              
 200                                                                      
 200 DIFFRACTION PROTOCOL: SINGLE WAVELENGTH                              
 200 METHOD USED TO DETERMINE THE STRUCTURE: MOLECULAR REPLACEMENT        
 200 SOFTWARE USED: CNS                                                   
 200 STARTING MODEL: PDB ENTRY 2JC7                                       
 200                                                                      
 200 REMARK: NULL                                                         
 280                                                                      
 280 CRYSTAL                                                              
 280 SOLVENT CONTENT, VS   (%): 69.09                                     
 280 MATTHEWS COEFFICIENT, VM (ANGSTROMS**3/DA): 3.98                     
 280                                                                      
 280 CRYSTALLIZATION CONDITIONS: 0.1M SODIUM ACETATE, 28% PEG 2000 MME,   
 280  0.1M HEPES (PH 7.5), VAPOR DIFFUSION, SITTING DROP, TEMPERATURE     
 280  293K                                                                
 290                                                                      
 290 CRYSTALLOGRAPHIC SYMMETRY                                            
 290 SYMMETRY OPERATORS FOR SPACE GROUP: P 41 21 2                        
 290                                                                      
 290      SYMOP   SYMMETRY                                                
 290     NNNMMM   OPERATOR                                                
 290       1555   X,Y,Z                                                   
 290       2555   -X,-Y,Z+1/2                                             
 290       3555   -Y+1/2,X+1/2,Z+1/4                                      
 290       4555   Y+1/2,-X+1/2,Z+3/4                                      
 290       5555   -X+1/2,Y+1/2,-Z+1/4                                     
 290       6555   X+1/2,-Y+1/2,-Z+3/4                                     
 290       7555   Y,X,-Z                                                  
 290       8555   -Y,-X,-Z+1/2                                            
 290                                                                      
 290     WHERE NNN -> OPERATOR NUMBER                                     
 290           MMM -> TRANSLATION VECTOR                                  
 290                                                                      
 290 CRYSTALLOGRAPHIC SYMMETRY TRANSFORMATIONS                            
 290 THE FOLLOWING TRANSFORMATIONS OPERATE ON THE ATOM/HETATM             
 290 RECORDS IN THIS ENTRY TO PRODUCE CRYSTALLOGRAPHICALLY                
 290 RELATED MOLECULES.                                                   
 290   SMTRY1   1  1.000000  0.000000  0.000000        0.00000            
 290   SMTRY2   1  0.000000  1.000000  0.000000        0.00000            
 290   SMTRY3   1  0.000000  0.000000  1.000000        0.00000            
 290   SMTRY1   2 -1.000000  0.000000  0.000000        0.00000            
 290   SMTRY2   2  0.000000 -1.000000  0.000000        0.00000            
 290   SMTRY3   2  0.000000  0.000000  1.000000       41.58000            
 290   SMTRY1   3  0.000000 -1.000000  0.000000       51.38000            
 290   SMTRY2   3  1.000000  0.000000  0.000000       51.38000            
 290   SMTRY3   3  0.000000  0.000000  1.000000       20.79000            
 290   SMTRY1   4  0.000000  1.000000  0.000000       51.38000            
 290   SMTRY2   4 -1.000000  0.000000  0.000000       51.38000            
 290   SMTRY3   4  0.000000  0.000000  1.000000       62.37000            
 290   SMTRY1   5 -1.000000  0.000000  0.000000       51.38000            
 290   SMTRY2   5  0.000000  1.000000  0.000000       51.38000            
 290   SMTRY3   5  0.000000  0.000000 -1.000000       20.79000            
 290   SMTRY1   6  1.000000  0.000000  0.000000       51.38000            
 290   SMTRY2   6  0.000000 -1.000000  0.000000       51.38000            
 290   SMTRY3   6  0.000000  0.000000 -1.000000       62.37000            
 290   SMTRY1   7  0.000000  1.000000  0.000000        0.00000            
 290   SMTRY2   7  1.000000  0.000000  0.000000        0.00000            
 290   SMTRY3   7  0.000000  0.000000 -1.000000        0.00000            
 290   SMTRY1   8  0.000000 -1.000000  0.000000        0.00000            
 290   SMTRY2   8 -1.000000  0.000000  0.000000        0.00000            
 290   SMTRY3   8  0.000000  0.000000 -1.000000       41.58000            
 290                                                                      
 290 REMARK: NULL                                                         
 300                                                                      
 300 BIOMOLECULE: 1                                                       
 300 SEE REMARK 350 FOR THE AUTHOR PROVIDED AND/OR PROGRAM                
 300 GENERATED ASSEMBLY INFORMATION FOR THE STRUCTURE IN                  
 300 THIS ENTRY. THE REMARK MAY ALSO PROVIDE INFORMATION ON               
 300 BURIED SURFACE AREA.                                                 
 350                                                                      
 350 COORDINATES FOR A COMPLETE MULTIMER REPRESENTING THE KNOWN           
 350 BIOLOGICALLY SIGNIFICANT OLIGOMERIZATION STATE OF THE                
 350 MOLECULE CAN BE GENERATED BY APPLYING BIOMT TRANSFORMATIONS          
 350 GIVEN BELOW.  BOTH NON-CRYSTALLOGRAPHIC AND                          
 350 CRYSTALLOGRAPHIC OPERATIONS ARE GIVEN.                               
 350                                                                      
 350 BIOMOLECULE: 1                                                       
 350 AUTHOR DETERMINED BIOLOGICAL UNIT: MONOMERIC                         
 350 SOFTWARE DETERMINED QUATERNARY STRUCTURE: MONOMERIC                  
 350 SOFTWARE USED: PISA                                                  
 350 APPLY THE FOLLOWING TO CHAINS: A                                     
 350   BIOMT1   1  1.000000  0.000000  0.000000        0.00000            
 350   BIOMT2   1  0.000000  1.000000  0.000000        0.00000            
 350   BIOMT3   1  0.000000  0.000000  1.000000        0.00000            
 500                                                                      
 500 GEOMETRY AND STEREOCHEMISTRY                                         
 500 SUBTOPIC: CLOSE CONTACTS IN SAME ASYMMETRIC UNIT                     
 500                                                                      
 500 THE FOLLOWING ATOMS ARE IN CLOSE CONTACT.                            
 500                                                                      
 500  ATM1  RES C  SSEQI   ATM2  RES C  SSEQI           DISTANCE          
 500   OG   SER A    81     C10  MXC A   300              1.40            
 500                                                                      
 500 REMARK: NULL                                                         
 500                                                                      
 500 GEOMETRY AND STEREOCHEMISTRY                                         
 500 SUBTOPIC: TORSION ANGLES                                             
 500                                                                      
 500 TORSION ANGLES OUTSIDE THE EXPECTED RAMACHANDRAN REGIONS:            
 500 (M=MODEL NUMBER; RES=RESIDUE NAME; C=CHAIN IDENTIFIER;               
 500 SSEQ=SEQUENCE NUMBER; I=INSERTION CODE).                             
 500                                                                      
 500 STANDARD TABLE:                                                      
 500 FORMAT:(10X,I3,1X,A3,1X,A1,I4,A1,4X,F7.2,3X,F7.2)                    
 500                                                                      
 500 EXPECTED VALUES: GJ KLEYWEGT AND TA JONES (1996). PHI/PSI-           
 500 CHOLOGY: RAMACHANDRAN REVISITED. STRUCTURE 4, 1395 - 1400            
 500                                                                      
 500  M RES CSSEQI        PSI       PHI                                   
 500    ALA A  80     -140.32     52.11                                   
 500    ALA A 129       79.23    -68.43                                   
 500    THR A 157       12.69     55.17                                   
 500    ASN A 165       11.84   -158.95                                   
 500    ASN A 240        0.37    -63.35                                   
 500                                                                      
 500 REMARK: NULL                                                         
 800                                                                      
 800 SITE                                                                 
 800 SITE_IDENTIFIER: AC1                                                 
 800 EVIDENCE_CODE: SOFTWARE                                              
 800 SITE_DESCRIPTION: BINDING SITE FOR RESIDUE MXC A 300                 
 800                                                                      
 800 SITE_IDENTIFIER: AC2                                                 
 800 EVIDENCE_CODE: SOFTWARE                                              
 800 SITE_DESCRIPTION: BINDING SITE FOR RESIDUE PG4 A 1                   
 900                                                                      
 900 RELATED ENTRIES                                                      
 900 RELATED ID: 3FV7   RELATED DB: PDB                                   
 900 THE SAME PROTEIN COMPLEXED WITH SA4-44 INHIBITOR                     
 900 RELATED ID: 3FZC   RELATED DB: PDB                                   

>  <DBREF>  (1) 
 3FYZ A   32   275  UNP    Q8RLA6   Q8RLA6_ACIBA    32    275             

>  <SEQRES>  (1) 
   1 A  244  HIS ILE SER SER GLN GLN HIS GLU LYS ALA ILE LYS SER          
   2 A  244  TYR PHE ASP GLU ALA GLN THR GLN GLY VAL ILE ILE ILE          
   3 A  244  LYS GLU GLY LYS ASN LEU SER THR TYR GLY ASN ALA LEU          
   4 A  244  ALA ARG ALA ASN LYS GLU TYR VAL PRO ALA SER THR PHE          
   5 A  244  KCX MET LEU ASN ALA LEU ILE GLY LEU GLU ASN HIS LYS          
   6 A  244  ALA THR THR ASN GLU ILE PHE LYS TRP ASP GLY LYS LYS          
   7 A  244  ARG THR TYR PRO MET TRP GLU LYS ASP MET THR LEU GLY          
   8 A  244  GLU ALA MET ALA LEU SER ALA VAL PRO VAL TYR GLN GLU          
   9 A  244  LEU ALA ARG ARG THR GLY LEU GLU LEU MET GLN LYS GLU          
  10 A  244  VAL LYS ARG VAL ASN PHE GLY ASN THR ASN ILE GLY THR          
  11 A  244  GLN VAL ASP ASN PHE TRP LEU VAL GLY PRO LEU LYS ILE          
  12 A  244  THR PRO VAL GLN GLU VAL ASN PHE ALA ASP ASP LEU ALA          
  13 A  244  HIS ASN ARG LEU PRO PHE LYS LEU GLU THR GLN GLU GLU          
  14 A  244  VAL LYS LYS MET LEU LEU ILE LYS GLU VAL ASN GLY SER          
  15 A  244  LYS ILE TYR ALA LYS SER GLY TRP GLY MET GLY VAL THR          
  16 A  244  PRO GLN VAL GLY TRP LEU THR GLY TRP VAL GLU GLN ALA          
  17 A  244  ASN GLY LYS LYS ILE PRO PHE SER LEU ASN LEU GLU MET          
  18 A  244  LYS GLU GLY MET SER GLY SER ILE ARG ASN GLU ILE THR          
  19 A  244  TYR LYS SER LEU GLU ASN LEU GLY ILE ILE                      

>  <MODRES>  (1) 
 3FYZ KCX A   84  LYS  LYSINE NZ-CARBOXYLIC ACID                          

>  <HET>  (1) 
 KCX  A  84      12                                                       
 MXC  A 300      29                                                       
 PG4  A   1      13                                                       

>  <HETNAM>  (1) 
     KCX LYSINE NZ-CARBOXYLIC ACID                                        
     MXC (2S,3R)-2-[(7-AMINOCARBONYL-2-METHANOYL-INDOLIZIN-3-             
   2 MXC  YL)AMINO]-4-AMINOCARBONYLOXY-3-METHYL-3-SULFINO-                
   3 MXC  BUTANOIC ACID                                                   
     PG4 TETRAETHYLENE GLYCOL                                             

>  <FORMUL>  (1) 
   1  KCX    C7 H14 N2 O4                                                 
   2  MXC    C16 H18 N4 O8 S                                              
   3  PG4    C8 H18 O5                                                    
   4  HOH   *79(H2 O)                                                     

>  <HELIX>  (1) 
   1   1 SER A   34  ALA A   49  1                                  16    
   2   2 ALA A   69  LYS A   75  5                                   7    
   3   3 PRO A   79  SER A   81  5                                   3    
   4   4 THR A   82  ASN A   94  1                                  13    
   5   5 TYR A  112  GLU A  116  5                                   5    
   6   6 THR A  120  SER A  128  1                                   9    
   7   7 ALA A  129  GLY A  141  1                                  13    
   8   8 GLY A  141  ASN A  153  1                                  13    
   9   9 ASN A  165  GLY A  170  1                                   6    
  10  10 THR A  175  HIS A  188  1                                  14    
  11  11 LYS A  194  LEU A  205  1                                  12    
  12  12 GLY A  258  LEU A  272  1                                  15    

>  <SHEET>  (1) 
   1   A 6 ASN A  62  GLY A  67  0                                        
   2   A 6 GLY A  53  GLU A  59 -1  N  ILE A  57   O  SER A  64           
   3   A 6 LYS A 243  MET A 252 -1  O  ASN A 249   N  VAL A  54           
   4   A 6 GLN A 228  GLU A 237 -1  N  GLY A 230   O  LEU A 250           
   5   A 6 SER A 213  GLY A 222 -1  N  LYS A 214   O  GLU A 237           
   6   A 6 LEU A 206  VAL A 210 -1  N  LYS A 208   O  ILE A 215           

>  <LINK>  (1) 
       C   PHE A  83                 N   KCX A  84     1555   1555  1.33  
       C   KCX A  84                 N   MET A  85     1555   1555  1.33  

>  <CISPEP>  (1) 
   1 GLY A  170    PRO A  171          0         0.40                     
   2 THR A  226    PRO A  227          0        -0.33                     

>  <SITE>  (1) 
   1 AC1 13 SER A  81  KCX A  84  THR A 111  TYR A 112                    
   2 AC1 13 MET A 114  SER A 128  VAL A 130  LYS A 218                    
   3 AC1 13 SER A 219  GLY A 220  TRP A 221  MET A 223                    
   4 AC1 13 ARG A 261                                                     
   1 AC2  4 LYS A  58  LYS A  61  ASN A  74  ASN A 181                    

>  <ORIGX1>  (1) 
      1.000000  0.000000  0.000000        0.00000                         

>  <ORIGX2>  (1) 
      0.000000  1.000000  0.000000        0.00000                         

>  <ORIGX3>  (1) 
      0.000000  0.000000  1.000000        0.00000                         

>  <SCALE1>  (1) 
      0.009731  0.000000  0.000000        0.00000                         

>  <SCALE2>  (1) 
      0.000000  0.009731  0.000000        0.00000                         

>  <SCALE3>  (1) 
      0.000000  0.000000  0.012025        0.00000                         

>  <MASTER>  (1) 
      282    0    3   12    6    0    5    6 2060    1   56   19          

$$$$
