start_structures/Ligand_Substrate/Ligand_Complex_Stripped/DXF_3NBL.pdb
     RDKit          3D

 35 36  0  0  1  0  0  0  0  0999 V2000
   48.7941   51.8789   46.3361 N   0  0  0  0  0  0  0  0  0  0  0  0
   47.4441   51.3836   46.5432 C   0  0  2  0  0  0  0  0  0  0  0  0
   47.4030   49.8882   46.4391 C   0  0  0  0  0  0  0  0  0  0  0  0
   46.4754   49.2680   46.9379 O   0  0  0  0  0  0  0  0  0  0  0  0
   46.5155   52.0007   45.5087 C   0  0  0  0  0  0  0  0  0  0  0  0
   46.1680   53.3306   45.8750 O   0  0  0  0  0  0  0  0  0  0  0  0
   45.3558   54.1366   45.0754 C   0  0  0  0  0  0  0  0  0  0  0  0
   43.4324   54.0164   43.5630 N   0  0  0  0  0  0  0  0  0  0  0  0
   45.0799   55.3021   45.4655 O   0  0  0  0  0  0  0  0  0  0  0  0
   44.8301   53.6440   43.7509 C   0  0  1  0  0  0  0  0  0  0  0  0
   45.6741   54.0995   42.5595 C   0  0  2  0  0  0  0  0  0  0  0  0
   40.8238   53.0588   48.2094 C   0  0  0  0  0  0  0  0  0  0  0  0
   49.6300   57.8444   37.4272 N   0  0  0  0  0  0  0  0  0  0  0  0
   50.9386   56.2207   38.4434 O   0  0  0  0  0  0  0  0  0  0  0  0
   50.3697   53.5468   41.5358 O   0  0  0  0  0  0  0  0  0  0  0  0
   41.2169   53.9929   44.2435 O   0  0  0  0  0  0  0  0  0  0  0  0
   49.3788   52.1701   43.0620 O   0  0  0  0  0  0  0  0  0  0  0  0
   44.1974   49.0953   44.3525 C   0  0  0  0  0  0  0  0  0  0  0  0
   44.2155   49.7906   43.1562 C   0  0  0  0  0  0  0  0  0  0  0  0
   43.5551   49.9066   45.2711 C   0  0  0  0  0  0  0  0  0  0  0  0
   48.8963   55.3970   40.1397 C   0  0  0  0  0  0  0  0  0  0  0  0
   46.5664   55.7344   40.7750 C   0  0  0  0  0  0  0  0  0  0  0  0
   42.0195   52.1441   46.3169 N   0  0  0  0  0  0  0  0  0  0  0  0
   47.0230   53.5471   42.6512 N   0  0  0  0  0  0  0  0  0  0  0  0
   41.3462   53.1934   46.9008 O   0  0  0  0  0  0  0  0  0  0  0  0
   48.7638   56.4185   39.1991 O   0  0  0  0  0  0  0  0  0  0  0  0
   43.6255   50.9487   43.3256 O   0  0  0  0  0  0  0  0  0  0  0  0
   45.7260   55.9125   42.3747 S   0  0  0  0  0  0  0  0  0  0  0  0
   49.8196   56.7960   38.3693 C   0  0  0  0  0  0  0  0  0  0  0  0
   49.3204   53.2158   42.1478 C   0  0  0  0  0  0  0  0  0  0  0  0
   42.3468   53.4399   44.2986 C   0  0  0  0  0  0  0  0  0  0  0  0
   47.8870   55.0366   40.9336 C   0  0  0  0  0  0  0  0  0  0  0  0
   42.5195   52.2186   45.1199 C   0  0  0  0  0  0  0  0  0  0  0  0
   48.0343   53.9167   41.9185 C   0  0  0  0  0  0  0  0  0  0  0  0
   43.2270   51.0485   44.5688 C   0  0  0  0  0  0  0  0  0  0  0  0
  2  1  1  6
  2  3  1  0
  3  4  2  0
  5  2  1  0
  6  7  1  0
  6  5  1  0
  7  9  2  0
 10  8  1  6
  8 31  1  0
 10  7  1  0
 11 10  1  0
 11 24  1  0
 11 28  1  1
 12 25  1  0
 13 29  1  0
 14 29  2  0
 15 30  2  0
 16 31  2  0
 17 30  1  0
 18 19  2  0
 18 20  1  0
 19 27  1  0
 20 35  2  0
 21 26  1  0
 21 32  2  0
 22 28  1  0
 22 32  1  0
 23 25  1  0
 23 33  2  0
 24 34  2  0
 26 29  1  0
 27 35  1  0
 30 34  1  0
 31 33  1  0
 32 34  1  0
 33 35  1  0
M  END
>  <HEADER>  (1) 
    HYDROLASE/ANTIBIOTIC                    03-JUN-10   3NBL              

>  <TITLE>  (1) 
    CRYSTAL STRUCTURE OF BLAC-E166A COVALENTLY BOUND WITH CEFUROXIME      

>  <COMPND>  (1) 
    MOL_ID: 1;                                                            
   2 MOLECULE: BETA-LACTAMASE;                                            
   3 CHAIN: A;                                                            
   4 SYNONYM: PENICILLINASE;                                              
   5 EC: 3.5.2.6;                                                         
   6 ENGINEERED: YES;                                                     
   7 MUTATION: YES                                                        

>  <SOURCE>  (1) 
    MOL_ID: 1;                                                            
   2 ORGANISM_SCIENTIFIC: MYCOBACTERIUM TUBERCULOSIS;                     
   3 ORGANISM_TAXID: 1773;                                                
   4 STRAIN: H37RV;                                                       
   5 GENE: BLAA, BLAC, MT2128, MTCY49.07C, RV2068C;                       
   6 EXPRESSION_SYSTEM: ESCHERICHIA COLI;                                 
   7 EXPRESSION_SYSTEM_TAXID: 562;                                        
   8 EXPRESSION_SYSTEM_STRAIN: ROSETTA2;                                  
   9 EXPRESSION_SYSTEM_VECTOR: PLASMID;                                   
  10 EXPRESSION_SYSTEM_PLASMID: PET28A                                    

>  <KEYWDS>  (1) 
    PENICILLIN BINDING PROTEIN, BETA-LACTAM COVALENT ADDUCT, HYDROLASE-   
   2 ANTIBIOTIC COMPLEX                                                   

>  <EXPDTA>  (1) 
    X-RAY DIFFRACTION                                                     

>  <AUTHOR>  (1) 
    L.W.TREMBLAY,J.S.BLANCHARD                                            

>  <REVDAT>  (1) 
   3   08-NOV-17 3NBL    1       REMARK                                   
   2   16-MAY-12 3NBL    1       HEADER KEYWDS HETNAM HETSYN              
   1   14-DEC-11 3NBL    0                                                

>  <JRNL>  (1) 
      AUTH   L.W.TREMBLAY,J.S.BLANCHARD                                   
      TITL   BLAC-E166A COVALENTLY BOUND WITH CEPHALOSPORINS AND          
      TITL 2 PENICILLINS                                                  
      REF    TO BE PUBLISHED                                              
      REFN                                                                

>  <REMARK>  (1) 
   2                                                                      
   2 RESOLUTION.    2.00 ANGSTROMS.                                       
   3                                                                      
   3 REFINEMENT.                                                          
   3   PROGRAM     : REFMAC 5.5.0102                                      
   3   AUTHORS     : MURSHUDOV,VAGIN,DODSON                               
   3                                                                      
   3    REFINEMENT TARGET : MAXIMUM LIKELIHOOD                            
   3                                                                      
   3  DATA USED IN REFINEMENT.                                            
   3   RESOLUTION RANGE HIGH (ANGSTROMS) : 2.00                           
   3   RESOLUTION RANGE LOW  (ANGSTROMS) : 35.35                          
   3   DATA CUTOFF            (SIGMA(F)) : 0.000                          
   3   COMPLETENESS FOR RANGE        (%) : 99.8                           
   3   NUMBER OF REFLECTIONS             : 17774                          
   3                                                                      
   3  FIT TO DATA USED IN REFINEMENT.                                     
   3   CROSS-VALIDATION METHOD          : THROUGHOUT                      
   3   FREE R VALUE TEST SET SELECTION  : RANDOM                          
   3   R VALUE     (WORKING + TEST SET) : 0.183                           
   3   R VALUE            (WORKING SET) : 0.181                           
   3   FREE R VALUE                     : 0.222                           
   3   FREE R VALUE TEST SET SIZE   (%) : 5.100                           
   3   FREE R VALUE TEST SET COUNT      : 902                             
   3                                                                      
   3  FIT IN THE HIGHEST RESOLUTION BIN.                                  
   3   TOTAL NUMBER OF BINS USED           : 20                           
   3   BIN RESOLUTION RANGE HIGH       (A) : 2.00                         
   3   BIN RESOLUTION RANGE LOW        (A) : 2.05                         
   3   REFLECTION IN BIN     (WORKING SET) : 1208                         
   3   BIN COMPLETENESS (WORKING+TEST) (%) : 98.61                        
   3   BIN R VALUE           (WORKING SET) : 0.1900                       
   3   BIN FREE R VALUE SET COUNT          : 71                           
   3   BIN FREE R VALUE                    : 0.2150                       
   3                                                                      
   3  NUMBER OF NON-HYDROGEN ATOMS USED IN REFINEMENT.                    
   3   PROTEIN ATOMS            : 1948                                    
   3   NUCLEIC ACID ATOMS       : 0                                       
   3   HETEROGEN ATOMS          : 29                                      
   3   SOLVENT ATOMS            : 191                                     
   3                                                                      
   3  B VALUES.                                                           
   3   FROM WILSON PLOT           (A**2) : NULL                           
   3   MEAN B VALUE      (OVERALL, A**2) : 10.68                          
   3   OVERALL ANISOTROPIC B VALUE.                                       
   3    B11 (A**2) : 0.00000                                              
   3    B22 (A**2) : 0.00000                                              
   3    B33 (A**2) : 0.00000                                              
   3    B12 (A**2) : 0.00000                                              
   3    B13 (A**2) : 0.00000                                              
   3    B23 (A**2) : 0.00000                                              
   3                                                                      
   3  ESTIMATED OVERALL COORDINATE ERROR.                                 
   3   ESU BASED ON R VALUE                            (A): NULL          
   3   ESU BASED ON FREE R VALUE                       (A): 0.162         
   3   ESU BASED ON MAXIMUM LIKELIHOOD                 (A): 0.099         
   3   ESU FOR B VALUES BASED ON MAXIMUM LIKELIHOOD (A**2): 3.457         
   3                                                                      
   3 CORRELATION COEFFICIENTS.                                            
   3   CORRELATION COEFFICIENT FO-FC      : 0.937                         
   3   CORRELATION COEFFICIENT FO-FC FREE : 0.908                         
   3                                                                      
   3  RMS DEVIATIONS FROM IDEAL VALUES        COUNT    RMS    WEIGHT      
   3   BOND LENGTHS REFINED ATOMS        (A):  2016 ; 0.009 ; 0.022       
   3   BOND LENGTHS OTHERS               (A):  NULL ;  NULL ;  NULL       
   3   BOND ANGLES REFINED ATOMS   (DEGREES):  2751 ; 1.192 ; 1.980       
   3   BOND ANGLES OTHERS          (DEGREES):  NULL ;  NULL ;  NULL       
   3   TORSION ANGLES, PERIOD 1    (DEGREES):   259 ; 5.790 ; 5.000       
   3   TORSION ANGLES, PERIOD 2    (DEGREES):    84 ;39.370 ;23.095       
   3   TORSION ANGLES, PERIOD 3    (DEGREES):   294 ;11.308 ;15.000       
   3   TORSION ANGLES, PERIOD 4    (DEGREES):    18 ;21.873 ;15.000       
   3   CHIRAL-CENTER RESTRAINTS       (A**3):   314 ; 0.071 ; 0.200       
   3   GENERAL PLANES REFINED ATOMS      (A):  1558 ; 0.006 ; 0.021       
   3   GENERAL PLANES OTHERS             (A):  NULL ;  NULL ;  NULL       
   3   NON-BONDED CONTACTS REFINED ATOMS (A):  NULL ;  NULL ;  NULL       
   3   NON-BONDED CONTACTS OTHERS        (A):  NULL ;  NULL ;  NULL       
   3   NON-BONDED TORSION REFINED ATOMS  (A):  NULL ;  NULL ;  NULL       
   3   NON-BONDED TORSION OTHERS         (A):  NULL ;  NULL ;  NULL       
   3   H-BOND (X...Y) REFINED ATOMS      (A):  NULL ;  NULL ;  NULL       
   3   H-BOND (X...Y) OTHERS             (A):  NULL ;  NULL ;  NULL       
   3   POTENTIAL METAL-ION REFINED ATOMS (A):  NULL ;  NULL ;  NULL       
   3   POTENTIAL METAL-ION OTHERS        (A):  NULL ;  NULL ;  NULL       
   3   SYMMETRY VDW REFINED ATOMS        (A):  NULL ;  NULL ;  NULL       
   3   SYMMETRY VDW OTHERS               (A):  NULL ;  NULL ;  NULL       
   3   SYMMETRY H-BOND REFINED ATOMS     (A):  NULL ;  NULL ;  NULL       
   3   SYMMETRY H-BOND OTHERS            (A):  NULL ;  NULL ;  NULL       
   3   SYMMETRY METAL-ION REFINED ATOMS  (A):  NULL ;  NULL ;  NULL       
   3   SYMMETRY METAL-ION OTHERS         (A):  NULL ;  NULL ;  NULL       
   3                                                                      
   3  ISOTROPIC THERMAL FACTOR RESTRAINTS.     COUNT   RMS    WEIGHT      
   3   MAIN-CHAIN BOND REFINED ATOMS  (A**2):  1299 ; 0.472 ; 1.500       
   3   MAIN-CHAIN BOND OTHER ATOMS    (A**2):  NULL ;  NULL ;  NULL       
   3   MAIN-CHAIN ANGLE REFINED ATOMS (A**2):  2075 ; 0.893 ; 2.000       
   3   MAIN-CHAIN ANGLE OTHER ATOMS   (A**2):  NULL ;  NULL ;  NULL       
   3   SIDE-CHAIN BOND REFINED ATOMS  (A**2):   717 ; 1.564 ; 3.000       
   3   SIDE-CHAIN BOND OTHER ATOMS    (A**2):  NULL ;  NULL ;  NULL       
   3   SIDE-CHAIN ANGLE REFINED ATOMS (A**2):   676 ; 2.661 ; 4.500       
   3   SIDE-CHAIN ANGLE OTHER ATOMS   (A**2):  NULL ;  NULL ;  NULL       
   3   LONG RANGE B REFINED ATOMS     (A**2):  NULL ;  NULL ;  NULL       
   3   LONG RANGE B OTHER ATOMS       (A**2):  NULL ;  NULL ;  NULL       
   3                                                                      
   3 ANISOTROPIC THERMAL FACTOR RESTRAINTS.    COUNT   RMS   WEIGHT       
   3   RIGID-BOND RESTRAINTS          (A**2):  NULL ;  NULL ;  NULL       
   3   SPHERICITY; FREE ATOMS         (A**2):  NULL ;  NULL ;  NULL       
   3   SPHERICITY; BONDED ATOMS       (A**2):  NULL ;  NULL ;  NULL       
   3                                                                      
   3  NCS RESTRAINTS STATISTICS                                           
   3   NUMBER OF DIFFERENT NCS GROUPS : NULL                              
   3                                                                      
   3  TLS DETAILS                                                         
   3   NUMBER OF TLS GROUPS  : NULL                                       
   3                                                                      
   3  BULK SOLVENT MODELLING.                                             
   3   METHOD USED : MASK                                                 
   3   PARAMETERS FOR MASK CALCULATION                                    
   3   VDW PROBE RADIUS   : 1.40                                          
   3   ION PROBE RADIUS   : 0.80                                          
   3   SHRINKAGE RADIUS   : 0.80                                          
   3                                                                      
   3  OTHER REFINEMENT REMARKS: HYDROGENS HAVE BEEN ADDED IN THE RIDING   
   3  POSITIONS. U VALUES REFINED INDIVIDUALLY.                           
   4                                                                      
   4 3NBL COMPLIES WITH FORMAT V. 3.30, 13-JUL-11                         
 100                                                                      
 100 THIS ENTRY HAS BEEN PROCESSED BY RCSB ON 11-JUN-10.                  
 100 THE DEPOSITION ID IS D_1000059624.                                   
 200                                                                      
 200 EXPERIMENTAL DETAILS                                                 
 200  EXPERIMENT TYPE                : X-RAY DIFFRACTION                  
 200  DATE OF DATA COLLECTION        : 2009; 2009                         
 200  TEMPERATURE           (KELVIN) : 100; 100                           
 200  PH                             : 7.5                                
 200  NUMBER OF CRYSTALS USED        : 1                                  
 200                                                                      
 200  SYNCHROTRON              (Y/N) : Y; Y                               
 200  RADIATION SOURCE               : NSLS; NSLS                         
 200  BEAMLINE                       : X12C; X29A                         
 200  X-RAY GENERATOR MODEL          : NULL; NULL                         
 200  MONOCHROMATIC OR LAUE    (M/L) : NULL; NULL                         
 200  WAVELENGTH OR RANGE        (A) : 1.000; 1.000                       
 200  MONOCHROMATOR                  : SI(111) CHANNEL CUT; SI(111)       
 200                                   CHANNEL CUT                        
 200  OPTICS                         : NULL; NULL                         
 200                                                                      
 200  DETECTOR TYPE                  : CCD; CCD                           
 200  DETECTOR MANUFACTURER          : ADSC QUANTUM 210; ADSC QUANTUM     
 200                                   210                                
 200  INTENSITY-INTEGRATION SOFTWARE : HKL-2000                           
 200  DATA SCALING SOFTWARE          : HKL-2000                           
 200                                                                      
 200  NUMBER OF UNIQUE REFLECTIONS   : 17823                              
 200  RESOLUTION RANGE HIGH      (A) : 2.000                              
 200  RESOLUTION RANGE LOW       (A) : 50.000                             
 200  REJECTION CRITERIA  (SIGMA(I)) : 0.000                              
 200                                                                      
 200 OVERALL.                                                             
 200  COMPLETENESS FOR RANGE     (%) : 100.0                              
 200  DATA REDUNDANCY                : 8.000                              
 200  R MERGE                    (I) : 0.32000                            
 200  R SYM                      (I) : NULL                               
 200  <I/SIGMA(I)> FOR THE DATA SET  : 13.5000                            
 200                                                                      
 200 IN THE HIGHEST RESOLUTION SHELL.                                     
 200  HIGHEST RESOLUTION SHELL, RANGE HIGH (A) : 2.00                     
 200  HIGHEST RESOLUTION SHELL, RANGE LOW  (A) : 2.05                     
 200  COMPLETENESS FOR SHELL     (%) : 98.6                               
 200  DATA REDUNDANCY IN SHELL       : 8.10                               
 200  R MERGE FOR SHELL          (I) : 0.58900                            
 200  R SYM FOR SHELL            (I) : NULL                               
 200  <I/SIGMA(I)> FOR SHELL         : 4.100                              
 200                                                                      
 200 DIFFRACTION PROTOCOL: SINGLE WAVELENGTH; SINGLE WAVELENGTH           
 200 METHOD USED TO DETERMINE THE STRUCTURE: MOLECULAR REPLACEMENT        
 200 SOFTWARE USED: DIRECT                                                
 200 STARTING MODEL: PDB ENTRY 3DWZ                                       
 200                                                                      
 200 REMARK: NULL                                                         
 280                                                                      
 280 CRYSTAL                                                              
 280 SOLVENT CONTENT, VS   (%): 45.44                                     
 280 MATTHEWS COEFFICIENT, VM (ANGSTROMS**3/DA): 2.25                     
 280                                                                      
 280 CRYSTALLIZATION CONDITIONS: 0.1 M HEPES, 2 M NH4H2PO4, PH 7.5,       
 280  VAPOR DIFFUSION, SITTING DROP, TEMPERATURE 298K                     
 290                                                                      
 290 CRYSTALLOGRAPHIC SYMMETRY                                            
 290 SYMMETRY OPERATORS FOR SPACE GROUP: P 21 21 21                       
 290                                                                      
 290      SYMOP   SYMMETRY                                                
 290     NNNMMM   OPERATOR                                                
 290       1555   X,Y,Z                                                   
 290       2555   -X+1/2,-Y,Z+1/2                                         
 290       3555   -X,Y+1/2,-Z+1/2                                         
 290       4555   X+1/2,-Y+1/2,-Z                                         
 290                                                                      
 290     WHERE NNN -> OPERATOR NUMBER                                     
 290           MMM -> TRANSLATION VECTOR                                  
 290                                                                      
 290 CRYSTALLOGRAPHIC SYMMETRY TRANSFORMATIONS                            
 290 THE FOLLOWING TRANSFORMATIONS OPERATE ON THE ATOM/HETATM             
 290 RECORDS IN THIS ENTRY TO PRODUCE CRYSTALLOGRAPHICALLY                
 290 RELATED MOLECULES.                                                   
 290   SMTRY1   1  1.000000  0.000000  0.000000        0.00000            
 290   SMTRY2   1  0.000000  1.000000  0.000000        0.00000            
 290   SMTRY3   1  0.000000  0.000000  1.000000        0.00000            
 290   SMTRY1   2 -1.000000  0.000000  0.000000       24.69150            
 290   SMTRY2   2  0.000000 -1.000000  0.000000        0.00000            
 290   SMTRY3   2  0.000000  0.000000  1.000000       37.82600            
 290   SMTRY1   3 -1.000000  0.000000  0.000000        0.00000            
 290   SMTRY2   3  0.000000  1.000000  0.000000       34.05100            
 290   SMTRY3   3  0.000000  0.000000 -1.000000       37.82600            
 290   SMTRY1   4  1.000000  0.000000  0.000000       24.69150            
 290   SMTRY2   4  0.000000 -1.000000  0.000000       34.05100            
 290   SMTRY3   4  0.000000  0.000000 -1.000000        0.00000            
 290                                                                      
 290 REMARK: NULL                                                         
 300                                                                      
 300 BIOMOLECULE: 1                                                       
 300 SEE REMARK 350 FOR THE AUTHOR PROVIDED AND/OR PROGRAM                
 300 GENERATED ASSEMBLY INFORMATION FOR THE STRUCTURE IN                  
 300 THIS ENTRY. THE REMARK MAY ALSO PROVIDE INFORMATION ON               
 300 BURIED SURFACE AREA.                                                 
 350                                                                      
 350 COORDINATES FOR A COMPLETE MULTIMER REPRESENTING THE KNOWN           
 350 BIOLOGICALLY SIGNIFICANT OLIGOMERIZATION STATE OF THE                
 350 MOLECULE CAN BE GENERATED BY APPLYING BIOMT TRANSFORMATIONS          
 350 GIVEN BELOW.  BOTH NON-CRYSTALLOGRAPHIC AND                          
 350 CRYSTALLOGRAPHIC OPERATIONS ARE GIVEN.                               
 350                                                                      
 350 BIOMOLECULE: 1                                                       
 350 AUTHOR DETERMINED BIOLOGICAL UNIT: MONOMERIC                         
 350 SOFTWARE DETERMINED QUATERNARY STRUCTURE: MONOMERIC                  
 350 SOFTWARE USED: PISA                                                  
 350 APPLY THE FOLLOWING TO CHAINS: A                                     
 350   BIOMT1   1  1.000000  0.000000  0.000000        0.00000            
 350   BIOMT2   1  0.000000  1.000000  0.000000        0.00000            
 350   BIOMT3   1  0.000000  0.000000  1.000000        0.00000            
 465                                                                      
 465 MISSING RESIDUES                                                     
 465 THE FOLLOWING RESIDUES WERE NOT LOCATED IN THE                       
 465 EXPERIMENT. (M=MODEL NUMBER; RES=RESIDUE NAME; C=CHAIN               
 465 IDENTIFIER; SSSEQ=SEQUENCE NUMBER; I=INSERTION CODE.)                
 465                                                                      
 465   M RES C SSSEQI                                                     
 465     GLU A   184                                                      
 465     LEU A   185                                                      
 465     ASN A   186                                                      
 465     ARG A   187                                                      
 500                                                                      
 500 GEOMETRY AND STEREOCHEMISTRY                                         
 500 SUBTOPIC: TORSION ANGLES                                             
 500                                                                      
 500 TORSION ANGLES OUTSIDE THE EXPECTED RAMACHANDRAN REGIONS:            
 500 (M=MODEL NUMBER; RES=RESIDUE NAME; C=CHAIN IDENTIFIER;               
 500 SSEQ=SEQUENCE NUMBER; I=INSERTION CODE).                             
 500                                                                      
 500 STANDARD TABLE:                                                      
 500 FORMAT:(10X,I3,1X,A3,1X,A1,I4,A1,4X,F7.2,3X,F7.2)                    
 500                                                                      
 500 EXPECTED VALUES: GJ KLEYWEGT AND TA JONES (1996). PHI/PSI-           
 500 CHOLOGY: RAMACHANDRAN REVISITED. STRUCTURE 4, 1395 - 1400            
 500                                                                      
 500  M RES CSSEQI        PSI       PHI                                   
 500    THR A  66     -157.59   -123.75                                   
 500    CYS A  83     -142.17     46.64                                   
 500    ARG A 236     -116.52   -114.27                                   
 500                                                                      
 500 REMARK: NULL                                                         
 800                                                                      
 800 SITE                                                                 
 800 SITE_IDENTIFIER: AC1                                                 
 800 EVIDENCE_CODE: SOFTWARE                                              
 800 SITE_DESCRIPTION: BINDING SITE FOR RESIDUE DXF A 1                   

>  <DBREF>  (1) 
 3NBL A   43   307  UNP    P0C5C1   BLAC_MYCTU      43    307             

>  <SEQADV>  (1) 
 3NBL ALA A  182  UNP  P0C5C1    GLU   182 ENGINEERED MUTATION            

>  <SEQRES>  (1) 
   1 A  265  ASP LEU ALA ASP ARG PHE ALA GLU LEU GLU ARG ARG TYR          
   2 A  265  ASP ALA ARG LEU GLY VAL TYR VAL PRO ALA THR GLY THR          
   3 A  265  THR ALA ALA ILE GLU TYR ARG ALA ASP GLU ARG PHE ALA          
   4 A  265  PHE CYS SER THR PHE LYS ALA PRO LEU VAL ALA ALA VAL          
   5 A  265  LEU HIS GLN ASN PRO LEU THR HIS LEU ASP LYS LEU ILE          
   6 A  265  THR TYR THR SER ASP ASP ILE ARG SER ILE SER PRO VAL          
   7 A  265  ALA GLN GLN HIS VAL GLN THR GLY MET THR ILE GLY GLN          
   8 A  265  LEU CYS ASP ALA ALA ILE ARG TYR SER ASP GLY THR ALA          
   9 A  265  ALA ASN LEU LEU LEU ALA ASP LEU GLY GLY PRO GLY GLY          
  10 A  265  GLY THR ALA ALA PHE THR GLY TYR LEU ARG SER LEU GLY          
  11 A  265  ASP THR VAL SER ARG LEU ASP ALA GLU ALA PRO GLU LEU          
  12 A  265  ASN ARG ASP PRO PRO GLY ASP GLU ARG ASP THR THR THR          
  13 A  265  PRO HIS ALA ILE ALA LEU VAL LEU GLN GLN LEU VAL LEU          
  14 A  265  GLY ASN ALA LEU PRO PRO ASP LYS ARG ALA LEU LEU THR          
  15 A  265  ASP TRP MET ALA ARG ASN THR THR GLY ALA LYS ARG ILE          
  16 A  265  ARG ALA GLY PHE PRO ALA ASP TRP LYS VAL ILE ASP LYS          
  17 A  265  THR GLY THR GLY ASP TYR GLY ARG ALA ASN ASP ILE ALA          
  18 A  265  VAL VAL TRP SER PRO THR GLY VAL PRO TYR VAL VAL ALA          
  19 A  265  VAL MET SER ASP ARG ALA GLY GLY GLY TYR ASP ALA GLU          
  20 A  265  PRO ARG GLU ALA LEU LEU ALA GLU ALA ALA THR CYS VAL          
  21 A  265  ALA GLY VAL LEU ALA                                          

>  <HET>  (1) 
 DXF  A   1      29                                                       

>  <HETNAM>  (1) 
     DXF (2R)-5-[(CARBAMOYLOXY)METHYL]-2-[(1R)-1-{[(2Z)-2-                
   2 DXF  (FURAN-2-YL)-2-(METHOXYIMINO)ACETYL]AMINO}-2-                   
   3 DXF  OXOETHYL]-3,6-DIHYDRO-2H-1,3-THIAZINE-4-CARBOXYLIC              
   4 DXF  ACID                                                            

>  <HETSYN>  (1) 
     DXF CEFUROXIME, BOUND FORM                                           

>  <FORMUL>  (1) 
   2  DXF    C16 H18 N4 O8 S                                              
   3  HOH   *191(H2 O)                                                    

>  <HELIX>  (1) 
   1   1 ASP A   43  TYR A   55  1                                  13    
   2   2 CYS A   83  THR A   85  5                                   3    
   3   3 PHE A   86  ASN A   98  1                                  13    
   4   4 PRO A   99  ASP A  104  5                                   6    
   5   5 THR A  110  ILE A  114  5                                   5    
   6   6 VAL A  120  VAL A  125  1                                   6    
   7   7 ILE A  131  TYR A  141  1                                  11    
   8   8 ASP A  143  GLY A  155  1                                  13    
   9   9 GLY A  156  GLY A  159  5                                   4    
  10  10 GLY A  160  LEU A  171  1                                  12    
  11  11 THR A  198  LEU A  211  1                                  14    
  12  12 PRO A  216  ARG A  229  1                                  14    
  13  13 ARG A  236  PHE A  241  1                                   6    
  14  14 ARG A  281  GLY A  285  5                                   5    
  15  15 ARG A  291  ALA A  307  1                                  17    

>  <SHEET>  (1) 
   1   A 5 ILE A  72  TYR A  74  0                                        
   2   A 5 ARG A  58  VAL A  63 -1  N  VAL A  61   O  TYR A  74           
   3   A 5 PRO A 272  ASP A 280 -1  O  MET A 278   N  GLY A  60           
   4   A 5 ALA A 259  TRP A 266 -1  N  ALA A 263   O  VAL A 275           
   5   A 5 LYS A 246  THR A 253 -1  N  GLY A 252   O  ASN A 260           
   1   B 2 PHE A  80  ALA A  81  0                                        
   2   B 2 THR A 196  THR A 197 -1  O  THR A 197   N  PHE A  80           
   1   C 2 LEU A 106  ILE A 107  0                                        
   2   C 2 MET A 129  THR A 130 -1  O  MET A 129   N  ILE A 107           

>  <LINK>  (1) 
       OG  SER A  84                 C   DXF A   1     1555   1555  1.35  

>  <CISPEP>  (1) 
   1 ALA A  182    PRO A  183          0         3.20                     

>  <SITE>  (1) 
   1 AC1 16 HOH A  10  HOH A  14  CYS A  83  SER A  84                    
   2 AC1 16 ILE A 117  SER A 142  PRO A 183  GLU A 193                    
   3 AC1 16 ARG A 236  LYS A 250  THR A 251  GLY A 252                    
   4 AC1 16 THR A 253  GLY A 254  HOH A 310  HOH A 358                    

>  <ORIGX1>  (1) 
      1.000000  0.000000  0.000000        0.00000                         

>  <ORIGX2>  (1) 
      0.000000  1.000000  0.000000        0.00000                         

>  <ORIGX3>  (1) 
      0.000000  0.000000  1.000000        0.00000                         

>  <SCALE1>  (1) 
      0.020250  0.000000  0.000000        0.00000                         

>  <SCALE2>  (1) 
      0.000000  0.014684  0.000000        0.00000                         

>  <SCALE3>  (1) 
      0.000000  0.000000  0.013218        0.00000                         

>  <MASTER>  (1) 
      273    0    1   15    9    0    4    6 2168    1   30   21          

$$$$
