start_structures/Ligand_Substrate/Ligand_Complex_Stripped/CAZ_5TW6.pdb
     RDKit          3D

 37 38  0  0  1  0  0  0  0  0999 V2000
   48.8002   51.8737   46.3375 N   0  0  0  0  0  0  0  0  0  0  0  0
   47.4483   51.3833   46.5430 C   0  0  2  0  0  0  0  0  0  0  0  0
   47.4040   49.8877   46.4403 C   0  0  0  0  0  0  0  0  0  0  0  0
   46.4737   49.2695   46.9369 O   0  0  0  0  0  0  0  0  0  0  0  0
   46.5151   52.0032   45.5090 C   0  0  0  0  0  0  0  0  0  0  0  0
   46.1587   53.3326   45.8733 O   0  0  0  0  0  0  0  0  0  0  0  0
   47.8082   55.2953   48.4493 S   0  0  0  0  0  0  0  0  0  0  0  0
   49.2894   56.2240   48.9498 C   0  0  0  0  0  0  0  0  0  0  0  0
   48.9866   57.6803   49.1300 C   0  0  0  0  0  0  0  0  0  0  0  0
   49.7985   58.3684   49.9224 C   0  0  0  0  0  0  0  0  0  0  0  0
   47.9532   58.3593   48.2893 C   0  0  0  0  0  0  0  0  0  0  0  0
   47.5369   59.7613   48.5289 C   0  0  0  0  0  0  0  0  0  0  0  0
   46.7214   60.3155   47.7444 O   0  0  0  0  0  0  0  0  0  0  0  0
   48.0142   60.4816   49.6171 O   0  0  0  0  0  0  0  0  0  0  0  0
   47.3430   57.7041   47.3431 N   0  0  0  0  0  0  0  0  0  0  0  0
   47.6454   56.3273   46.9576 C   0  0  2  0  0  0  0  0  0  0  0  0
   46.5546   55.7893   46.0328 C   0  0  2  0  0  0  0  0  0  0  0  0
   46.9223   54.4398   45.5005 C   0  0  0  0  0  0  0  0  0  0  0  0
   47.9134   54.3111   44.7298 O   0  0  0  0  0  0  0  0  0  0  0  0
   46.3381   56.7146   44.9274 N   0  0  0  0  0  0  0  0  0  0  0  0
   45.1418   56.7299   44.1437 C   0  0  0  0  0  0  0  0  0  0  0  0
   44.2373   55.8842   44.3822 O   0  0  0  0  0  0  0  0  0  0  0  0
   44.9549   57.7384   43.0633 C   0  0  0  0  0  0  0  0  0  0  0  0
   45.6970   58.8066   42.9934 N   0  0  0  0  0  0  0  0  0  0  0  0
   46.7061   59.0939   43.8894 O   0  0  0  0  0  0  0  0  0  0  0  0
   47.4606   60.2985   43.7978 C   0  0  0  0  0  0  0  0  0  0  0  0
   43.8981   57.5601   42.0389 C   0  0  0  0  0  0  0  0  0  0  0  0
   43.6063   58.5435   41.0850 C   0  0  0  0  0  0  0  0  0  0  0  0
   42.3683   57.9398   40.1126 S   0  0  0  0  0  0  0  0  0  0  0  0
   42.2712   56.4872   40.9348 C   0  0  0  0  0  0  0  0  0  0  0  0
   41.3698   55.4351   40.6134 N   0  0  0  0  0  0  0  0  0  0  0  0
   43.1557   56.4208   41.9466 N   0  0  0  0  0  0  0  0  0  0  0  0
   48.0851   60.4181   42.4179 C   0  0  0  0  0  0  0  0  0  0  0  0
   46.5402   61.4863   44.0324 C   0  0  0  0  0  0  0  0  0  0  0  0
   48.5568   60.2816   44.8234 C   0  0  0  0  0  0  0  0  0  0  0  0
   49.0863   59.1907   45.1649 O   0  0  0  0  0  0  0  0  0  0  0  0
   49.0544   61.4704   45.3466 O   0  0  0  0  0  0  0  0  0  0  0  0
  2  1  1  6
  2  3  1  0
  3  4  2  0
  5  6  1  0
  5  2  1  0
  7  8  1  0
 16  7  1  6
  8  9  1  0
  9 10  2  0
  9 11  1  0
 11 12  1  0
 11 15  2  0
 12 13  2  0
 12 14  1  0
 15 16  1  0
 16 17  1  0
 17 18  1  0
 17 20  1  1
 18 19  2  0
 18  6  1  0
 20 21  1  0
 21 22  2  0
 21 23  1  0
 23 24  2  0
 23 27  1  0
 24 25  1  0
 25 26  1  0
 26 33  1  0
 26 34  1  0
 26 35  1  0
 27 28  2  0
 27 32  1  0
 28 29  1  0
 29 30  1  0
 30 31  1  0
 30 32  2  0
 35 36  2  0
 35 37  1  0
M  END
>  <HEADER>  (1) 
    HYDROLASE/ANTIBIOTIC                    11-NOV-16   5TW6              

>  <TITLE>  (1) 
    CTX-M-14 P167S:E166A MUTANT WITH ACYLATED CEFTAZIDIME MOLECULE        

>  <COMPND>  (1) 
    MOL_ID: 1;                                                            
   2 MOLECULE: BETA-LACTAMASE;                                            
   3 CHAIN: A;                                                            
   4 FRAGMENT: UNP RESIDUES 29-291;                                       
   5 EC: 3.5.2.6;                                                         
   6 ENGINEERED: YES;                                                     
   7 MUTATION: YES                                                        

>  <SOURCE>  (1) 
    MOL_ID: 1;                                                            
   2 ORGANISM_SCIENTIFIC: ESCHERICHIA COLI;                               
   3 ORGANISM_TAXID: 562;                                                 
   4 GENE: BLACTX-M-14, BETA-LACTAMASE CTX-M-14, BLA-CTX-M-14A, BLACTX-M- 
   5 14A, BLACTX-M-14B, BLACTX-M-14C, BLACTX-M-27B, BLATOHO-3, BLAUOE-2,  
   6 CTX-M-14, AN206_26770, APT94_14605, BJJ90_27545, BK334_27290,        
   7 ETN48_P0088, PCT_085, PHK01_011;                                     
   8 EXPRESSION_SYSTEM: ESCHERICHIA COLI BL21(DE3);                       
   9 EXPRESSION_SYSTEM_TAXID: 469008                                      

>  <KEYWDS>  (1) 
    CTX-M BETA-LACTAMASE CEFTAZIDIME ACYL-ENZYME COMPLEX, HYDROLASE-      
   2 ANTIBIOTIC COMPLEX                                                   

>  <EXPDTA>  (1) 
    X-RAY DIFFRACTION                                                     

>  <AUTHOR>  (1) 
    M.PATEL,V.STOJANOSKI,B.SANKARAN,B.V.V.PRASAD,T.PALZKILL               

>  <REVDAT>  (1) 
   4   11-DEC-19 5TW6    1       REMARK                                   
   3   13-SEP-17 5TW6    1       REMARK                                   
   2   19-JUL-17 5TW6    1       JRNL                                     
   1   28-JUN-17 5TW6    0                                                

>  <JRNL>  (1) 
      AUTH   M.P.PATEL,L.HU,V.STOJANOSKI,B.SANKARAN,B.V.V.PRASAD,         
      AUTH 2 T.PALZKILL                                                   
      TITL   THE DRUG-RESISTANT VARIANT P167S EXPANDS THE SUBSTRATE       
      TITL 2 PROFILE OF CTX-M BETA-LACTAMASES FOR OXYIMINO-CEPHALOSPORIN  
      TITL 3 ANTIBIOTICS BY ENLARGING THE ACTIVE SITE UPON ACYLATION.     
      REF    BIOCHEMISTRY                  V.  56  3443 2017              
      REFN                   ISSN 1520-4995                               
      PMID   28613873                                                     
      DOI    10.1021/ACS.BIOCHEM.7B00176                                  

>  <REMARK>  (1) 
   2                                                                      
   2 RESOLUTION.    1.70 ANGSTROMS.                                       
   3                                                                      
   3 REFINEMENT.                                                          
   3   PROGRAM     : PHENIX (1.11.1_2575: ???)                            
   3   AUTHORS     : PAUL ADAMS,PAVEL AFONINE,VINCENT CHEN,IAN            
   3               : DAVIS,KRESHNA GOPAL,RALF GROSSE-KUNSTLEVE,           
   3               : LI-WEI HUNG,ROBERT IMMORMINO,TOM IOERGER,            
   3               : AIRLIE MCCOY,ERIK MCKEE,NIGEL MORIARTY,              
   3               : REETAL PAI,RANDY READ,JANE RICHARDSON,               
   3               : DAVID RICHARDSON,TOD ROMO,JIM SACCHETTINI,           
   3               : NICHOLAS SAUTER,JACOB SMITH,LAURENT                  
   3               : STORONI,TOM TERWILLIGER,PETER ZWART                  
   3                                                                      
   3    REFINEMENT TARGET : ML                                            
   3                                                                      
   3  DATA USED IN REFINEMENT.                                            
   3   RESOLUTION RANGE HIGH (ANGSTROMS) : 1.70                           
   3   RESOLUTION RANGE LOW  (ANGSTROMS) : 35.55                          
   3   MIN(FOBS/SIGMA_FOBS)              : 1.970                          
   3   COMPLETENESS FOR RANGE        (%) : 98.7                           
   3   NUMBER OF REFLECTIONS             : 48475                          
   3                                                                      
   3  FIT TO DATA USED IN REFINEMENT.                                     
   3   R VALUE     (WORKING + TEST SET) : 0.181                           
   3   R VALUE            (WORKING SET) : 0.179                           
   3   FREE R VALUE                     : 0.222                           
   3   FREE R VALUE TEST SET SIZE   (%) : 4.900                           
   3   FREE R VALUE TEST SET COUNT      : 2377                            
   3                                                                      
   3  FIT TO DATA USED IN REFINEMENT (IN BINS).                           
   3   BIN  RESOLUTION RANGE  COMPL.    NWORK NFREE   RWORK  RFREE        
   3     1 35.5545 -  4.3688    0.98     2705   147  0.1771 0.2015        
   3     2  4.3688 -  3.4686    1.00     2706   131  0.1426 0.1812        
   3     3  3.4686 -  3.0304    0.96     2691   103  0.1592 0.1941        
   3     4  3.0304 -  2.7534    0.98     2620   169  0.1693 0.2221        
   3     5  2.7534 -  2.5561    0.99     2740   156  0.1738 0.2612        
   3     6  2.5561 -  2.4055    1.00     2755   134  0.1760 0.2209        
   3     7  2.4055 -  2.2850    0.99     2733   124  0.1811 0.2194        
   3     8  2.2850 -  2.1856    1.00     2725   102  0.1755 0.2199        
   3     9  2.1856 -  2.1014    0.99     2793   151  0.1641 0.2292        
   3    10  2.1014 -  2.0289    0.99     2732   151  0.1879 0.2467        
   3    11  2.0289 -  1.9655    0.99     2663   163  0.1962 0.2129        
   3    12  1.9655 -  1.9093    0.99     2736   147  0.2133 0.2424        
   3    13  1.9093 -  1.8591    0.99     2720   153  0.2201 0.2760        
   3    14  1.8591 -  1.8137    0.98     2637   124  0.2206 0.2599        
   3    15  1.8137 -  1.7725    0.98     2767   137  0.2289 0.2892        
   3    16  1.7725 -  1.7348    0.98     2635   145  0.2566 0.2240        
   3    17  1.7348 -  1.7001    0.98     2740   140  0.2692 0.3141        
   3                                                                      
   3  BULK SOLVENT MODELLING.                                             
   3   METHOD USED        : FLAT BULK SOLVENT MODEL                       
   3   SOLVENT RADIUS     : 1.11                                          
   3   SHRINKAGE RADIUS   : 0.90                                          
   3   K_SOL              : NULL                                          
   3   B_SOL              : NULL                                          
   3                                                                      
   3  ERROR ESTIMATES.                                                    
   3   COORDINATE ERROR (MAXIMUM-LIKELIHOOD BASED)     : 0.190            
   3   PHASE ERROR (DEGREES, MAXIMUM-LIKELIHOOD BASED) : 19.600           
   3                                                                      
   3  B VALUES.                                                           
   3   FROM WILSON PLOT           (A**2) : NULL                           
   3   MEAN B VALUE      (OVERALL, A**2) : NULL                           
   3   OVERALL ANISOTROPIC B VALUE.                                       
   3    B11 (A**2) : NULL                                                 
   3    B22 (A**2) : NULL                                                 
   3    B33 (A**2) : NULL                                                 
   3    B12 (A**2) : NULL                                                 
   3    B13 (A**2) : NULL                                                 
   3    B23 (A**2) : NULL                                                 
   3                                                                      
   3  TWINNING INFORMATION.                                               
   3   FRACTION: NULL                                                     
   3   OPERATOR: NULL                                                     
   3                                                                      
   3  DEVIATIONS FROM IDEAL VALUES.                                       
   3                 RMSD          COUNT                                  
   3   BOND      :  0.007           2012                                  
   3   ANGLE     :  0.871           2737                                  
   3   CHIRALITY :  0.047            321                                  
   3   PLANARITY :  0.005            358                                  
   3   DIHEDRAL  :  7.527           1647                                  
   3                                                                      
   3  TLS DETAILS                                                         
   3   NUMBER OF TLS GROUPS  : 6                                          
   3   TLS GROUP : 1                                                      
   3    SELECTION: CHAIN 'A' AND (RESID 27 THROUGH 68 )                   
   3    ORIGIN FOR THE GROUP (A):   1.7269 -16.9579 -27.0810              
   3    T TENSOR                                                          
   3      T11:   0.3635 T22:   0.1729                                     
   3      T33:   0.1503 T12:  -0.0697                                     
   3      T13:  -0.0509 T23:  -0.0243                                     
   3    L TENSOR                                                          
   3      L11:   2.0594 L22:   1.8882                                     
   3      L33:   2.6142 L12:  -0.3102                                     
   3      L13:  -0.5885 L23:   0.3413                                     
   3    S TENSOR                                                          
   3      S11:  -0.0575 S12:   0.3202 S13:  -0.1461                       
   3      S21:   0.0314 S22:   0.0981 S23:   0.1768                       
   3      S31:   1.2427 S32:  -0.2695 S33:  -0.0139                       
   3   TLS GROUP : 2                                                      
   3    SELECTION: CHAIN 'A' AND (RESID 69 THROUGH 101 )                  
   3    ORIGIN FOR THE GROUP (A): -11.1819   3.5587  -7.5006              
   3    T TENSOR                                                          
   3      T11:   0.0162 T22:   0.3265                                     
   3      T33:   0.1314 T12:  -0.0025                                     
   3      T13:  -0.0029 T23:   0.0284                                     
   3    L TENSOR                                                          
   3      L11:   2.1676 L22:   2.0135                                     
   3      L33:   3.0726 L12:   0.0762                                     
   3      L13:   0.0818 L23:  -0.0374                                     
   3    S TENSOR                                                          
   3      S11:   0.4511 S12:   0.1818 S13:   0.1538                       
   3      S21:   0.0033 S22:  -0.3264 S23:   0.1592                       
   3      S31:  -0.3749 S32:  -1.1103 S33:   0.0274                       
   3   TLS GROUP : 3                                                      
   3    SELECTION: CHAIN 'A' AND (RESID 102 THROUGH 155 )                 
   3    ORIGIN FOR THE GROUP (A):  -6.1059   6.1132 -11.3247              
   3    T TENSOR                                                          
   3      T11:   0.1003 T22:   0.1748                                     
   3      T33:   0.1435 T12:   0.0651                                     
   3      T13:   0.0042 T23:   0.0467                                     
   3    L TENSOR                                                          
   3      L11:   1.4238 L22:   1.3548                                     
   3      L33:   3.4055 L12:  -0.8359                                     
   3      L13:  -0.4557 L23:   0.6294                                     
   3    S TENSOR                                                          
   3      S11:   0.2167 S12:   0.1894 S13:   0.2421                       
   3      S21:  -0.1908 S22:  -0.1433 S23:  -0.0737                       
   3      S31:  -0.3383 S32:  -0.4784 S33:  -0.0149                       
   3   TLS GROUP : 4                                                      
   3    SELECTION: CHAIN 'A' AND (RESID 156 THROUGH 212 )                 
   3    ORIGIN FOR THE GROUP (A):  -4.7795  -7.1899 -14.0794              
   3    T TENSOR                                                          
   3      T11:   0.0882 T22:   0.1412                                     
   3      T33:   0.1073 T12:  -0.0856                                     
   3      T13:  -0.0416 T23:   0.0280                                     
   3    L TENSOR                                                          
   3      L11:   2.8123 L22:   1.6459                                     
   3      L33:   4.0750 L12:  -1.7236                                     
   3      L13:  -1.4308 L23:   0.6531                                     
   3    S TENSOR                                                          
   3      S11:  -0.0653 S12:   0.3462 S13:   0.0312                       
   3      S21:  -0.0249 S22:   0.0163 S23:  -0.0148                       
   3      S31:   0.4579 S32:  -0.5136 S33:  -0.0328                       
   3   TLS GROUP : 5                                                      
   3    SELECTION: CHAIN 'A' AND (RESID 213 THROUGH 266 )                 
   3    ORIGIN FOR THE GROUP (A):  -6.1297  -6.4077 -27.4652              
   3    T TENSOR                                                          
   3      T11:   0.1016 T22:   0.5043                                     
   3      T33:   0.0876 T12:   0.0002                                     
   3      T13:  -0.0916 T23:   0.0026                                     
   3    L TENSOR                                                          
   3      L11:   1.8777 L22:   1.6702                                     
   3      L33:   2.7136 L12:  -1.8383                                     
   3      L13:  -1.4704 L23:   0.5637                                     
   3    S TENSOR                                                          
   3      S11:   0.3650 S12:   0.6778 S13:   0.0032                       
   3      S21:  -0.2182 S22:  -0.3246 S23:   0.1952                       
   3      S31:   0.0989 S32:  -0.9312 S33:  -0.0608                       
   3   TLS GROUP : 6                                                      
   3    SELECTION: CHAIN 'A' AND (RESID 267 THROUGH 288 )                 
   3    ORIGIN FOR THE GROUP (A):   4.5851  -6.0746 -31.6089              
   3    T TENSOR                                                          
   3      T11:   0.1309 T22:   0.3142                                     
   3      T33:   0.0968 T12:  -0.0045                                     
   3      T13:   0.0154 T23:  -0.0001                                     
   3    L TENSOR                                                          
   3      L11:   3.9934 L22:   5.3743                                     
   3      L33:   6.1029 L12:   2.4972                                     
   3      L13:   3.5365 L23:   2.9898                                     
   3    S TENSOR                                                          
   3      S11:   0.2292 S12:   0.6795 S13:   0.6706                       
   3      S21:  -0.1234 S22:  -0.1753 S23:   0.1681                       
   3      S31:   0.1090 S32:  -0.1743 S33:   0.1239                       
   3                                                                      
   3  NCS DETAILS                                                         
   3   NUMBER OF NCS GROUPS : NULL                                        
   3                                                                      
   3  OTHER REFINEMENT REMARKS: NULL                                      
   4                                                                      
   4 5TW6 COMPLIES WITH FORMAT V. 3.30, 13-JUL-11                         
 100                                                                      
 100 THIS ENTRY HAS BEEN PROCESSED BY RCSB ON 21-NOV-16.                  
 100 THE DEPOSITION ID IS D_1000224912.                                   
 200                                                                      
 200 EXPERIMENTAL DETAILS                                                 
 200  EXPERIMENT TYPE                : X-RAY DIFFRACTION                  
 200  DATE OF DATA COLLECTION        : 08-MAR-16                          
 200  TEMPERATURE           (KELVIN) : 293                                
 200  PH                             : NULL                               
 200  NUMBER OF CRYSTALS USED        : 1                                  
 200                                                                      
 200  SYNCHROTRON              (Y/N) : Y                                  
 200  RADIATION SOURCE               : ALS                                
 200  BEAMLINE                       : 5.0.1                              
 200  X-RAY GENERATOR MODEL          : NULL                               
 200  MONOCHROMATIC OR LAUE    (M/L) : M                                  
 200  WAVELENGTH OR RANGE        (A) : 0.997                              
 200  MONOCHROMATOR                  : NULL                               
 200  OPTICS                         : NULL                               
 200                                                                      
 200  DETECTOR TYPE                  : CCD                                
 200  DETECTOR MANUFACTURER          : ADSC QUANTUM 315R                  
 200  INTENSITY-INTEGRATION SOFTWARE : IMOSFLM                            
 200  DATA SCALING SOFTWARE          : AIMLESS 0.5.1                      
 200                                                                      
 200  NUMBER OF UNIQUE REFLECTIONS   : 48475                              
 200  RESOLUTION RANGE HIGH      (A) : 1.700                              
 200  RESOLUTION RANGE LOW       (A) : 35.547                             
 200  REJECTION CRITERIA  (SIGMA(I)) : NULL                               
 200                                                                      
 200 OVERALL.                                                             
 200  COMPLETENESS FOR RANGE     (%) : 99.5                               
 200  DATA REDUNDANCY                : 4.700                              
 200  R MERGE                    (I) : 0.09500                            
 200  R SYM                      (I) : NULL                               
 200  <I/SIGMA(I)> FOR THE DATA SET  : 8.4000                             
 200                                                                      
 200 IN THE HIGHEST RESOLUTION SHELL.                                     
 200  HIGHEST RESOLUTION SHELL, RANGE HIGH (A) : 1.80                     
 200  HIGHEST RESOLUTION SHELL, RANGE LOW  (A) : 1.84                     
 200  COMPLETENESS FOR SHELL     (%) : 99.5                               
 200  DATA REDUNDANCY IN SHELL       : 4.90                               
 200  R MERGE FOR SHELL          (I) : 0.37000                            
 200  R SYM FOR SHELL            (I) : NULL                               
 200  <I/SIGMA(I)> FOR SHELL         : NULL                               
 200                                                                      
 200 DIFFRACTION PROTOCOL: SINGLE WAVELENGTH                              
 200 METHOD USED TO DETERMINE THE STRUCTURE: MOLECULAR REPLACEMENT        
 200 SOFTWARE USED: MOLREP                                                
 200 STARTING MODEL: 1YLT                                                 
 200                                                                      
 200 REMARK: NULL                                                         
 280                                                                      
 280 CRYSTAL                                                              
 280 SOLVENT CONTENT, VS   (%): 40.81                                     
 280 MATTHEWS COEFFICIENT, VM (ANGSTROMS**3/DA): 2.08                     
 280                                                                      
 280 CRYSTALLIZATION CONDITIONS: 0.2M SODIUM FLUORIDE, 20%(W/V) PEG       
 280  3350, VAPOR DIFFUSION, HANGING DROP, TEMPERATURE 293K               
 290                                                                      
 290 CRYSTALLOGRAPHIC SYMMETRY                                            
 290 SYMMETRY OPERATORS FOR SPACE GROUP: P 32 2 1                         
 290                                                                      
 290      SYMOP   SYMMETRY                                                
 290     NNNMMM   OPERATOR                                                
 290       1555   X,Y,Z                                                   
 290       2555   -Y,X-Y,Z+2/3                                            
 290       3555   -X+Y,-X,Z+1/3                                           
 290       4555   Y,X,-Z                                                  
 290       5555   X-Y,-Y,-Z+1/3                                           
 290       6555   -X,-X+Y,-Z+2/3                                          
 290                                                                      
 290     WHERE NNN -> OPERATOR NUMBER                                     
 290           MMM -> TRANSLATION VECTOR                                  
 290                                                                      
 290 CRYSTALLOGRAPHIC SYMMETRY TRANSFORMATIONS                            
 290 THE FOLLOWING TRANSFORMATIONS OPERATE ON THE ATOM/HETATM             
 290 RECORDS IN THIS ENTRY TO PRODUCE CRYSTALLOGRAPHICALLY                
 290 RELATED MOLECULES.                                                   
 290   SMTRY1   1  1.000000  0.000000  0.000000        0.00000            
 290   SMTRY2   1  0.000000  1.000000  0.000000        0.00000            
 290   SMTRY3   1  0.000000  0.000000  1.000000        0.00000            
 290   SMTRY1   2 -0.500000 -0.866025  0.000000        0.00000            
 290   SMTRY2   2  0.866025 -0.500000  0.000000        0.00000            
 290   SMTRY3   2  0.000000  0.000000  1.000000      154.10067            
 290   SMTRY1   3 -0.500000  0.866025  0.000000        0.00000            
 290   SMTRY2   3 -0.866025 -0.500000  0.000000        0.00000            
 290   SMTRY3   3  0.000000  0.000000  1.000000       77.05033            
 290   SMTRY1   4 -0.500000  0.866025  0.000000        0.00000            
 290   SMTRY2   4  0.866025  0.500000  0.000000        0.00000            
 290   SMTRY3   4  0.000000  0.000000 -1.000000        0.00000            
 290   SMTRY1   5  1.000000  0.000000  0.000000        0.00000            
 290   SMTRY2   5  0.000000 -1.000000  0.000000        0.00000            
 290   SMTRY3   5  0.000000  0.000000 -1.000000       77.05033            
 290   SMTRY1   6 -0.500000 -0.866025  0.000000        0.00000            
 290   SMTRY2   6 -0.866025  0.500000  0.000000        0.00000            
 290   SMTRY3   6  0.000000  0.000000 -1.000000      154.10067            
 290                                                                      
 290 REMARK: NULL                                                         
 300                                                                      
 300 BIOMOLECULE: 1                                                       
 300 SEE REMARK 350 FOR THE AUTHOR PROVIDED AND/OR PROGRAM                
 300 GENERATED ASSEMBLY INFORMATION FOR THE STRUCTURE IN                  
 300 THIS ENTRY. THE REMARK MAY ALSO PROVIDE INFORMATION ON               
 300 BURIED SURFACE AREA.                                                 
 350                                                                      
 350 COORDINATES FOR A COMPLETE MULTIMER REPRESENTING THE KNOWN           
 350 BIOLOGICALLY SIGNIFICANT OLIGOMERIZATION STATE OF THE                
 350 MOLECULE CAN BE GENERATED BY APPLYING BIOMT TRANSFORMATIONS          
 350 GIVEN BELOW.  BOTH NON-CRYSTALLOGRAPHIC AND                          
 350 CRYSTALLOGRAPHIC OPERATIONS ARE GIVEN.                               
 350                                                                      
 350 BIOMOLECULE: 1                                                       
 350 AUTHOR DETERMINED BIOLOGICAL UNIT: MONOMERIC                         
 350 APPLY THE FOLLOWING TO CHAINS: A                                     
 350   BIOMT1   1  1.000000  0.000000  0.000000        0.00000            
 350   BIOMT2   1  0.000000  1.000000  0.000000        0.00000            
 350   BIOMT3   1  0.000000  0.000000  1.000000        0.00000            
 375                                                                      
 375 SPECIAL POSITION                                                     
 375 THE FOLLOWING ATOMS ARE FOUND TO BE WITHIN 0.15 ANGSTROMS            
 375 OF A SYMMETRY RELATED ATOM AND ARE ASSUMED TO BE ON SPECIAL          
 375 POSITIONS.                                                           
 375                                                                      
 375 ATOM RES CSSEQI                                                      
 375      HOH A 621  LIES ON A SPECIAL POSITION.                          
 465                                                                      
 465 MISSING RESIDUES                                                     
 465 THE FOLLOWING RESIDUES WERE NOT LOCATED IN THE                       
 465 EXPERIMENT. (M=MODEL NUMBER; RES=RESIDUE NAME; C=CHAIN               
 465 IDENTIFIER; SSSEQ=SEQUENCE NUMBER; I=INSERTION CODE.)                
 465                                                                      
 465   M RES C SSSEQI                                                     
 465     GLN A    25                                                      
 465     THR A    26                                                      
 465     GLY A   289                                                      
 465     LEU A   290                                                      
 500                                                                      
 500 GEOMETRY AND STEREOCHEMISTRY                                         
 500 SUBTOPIC: CLOSE CONTACTS IN SAME ASYMMETRIC UNIT                     
 500                                                                      
 500 THE FOLLOWING ATOMS ARE IN CLOSE CONTACT.                            
 500                                                                      
 500  ATM1  RES C  SSEQI   ATM2  RES C  SSEQI           DISTANCE          
 500   OG   SER A    70     C8   CAZ A   301              1.62            
 500   NH1  ARG A   276     O    HOH A   401              1.84            
 500   OE1  GLU A   273     O    HOH A   402              2.04            
 500   O    HOH A   468     O    HOH A   607              2.08            
 500   O    HOH A   538     O    HOH A   639              2.09            
 500   O    HOH A   495     O    HOH A   500              2.12            
 500   O    HOH A   448     O    HOH A   543              2.13            
 500   O    HOH A   570     O    HOH A   576              2.14            
 500   O    HOH A   556     O    HOH A   631              2.14            
 500   O    HOH A   599     O    HOH A   623              2.16            
 500   O    HOH A   403     O    HOH A   603              2.17            
 500                                                                      
 500 REMARK: NULL                                                         
 500                                                                      
 500 GEOMETRY AND STEREOCHEMISTRY                                         
 500 SUBTOPIC: CLOSE CONTACTS                                             
 500                                                                      
 500 THE FOLLOWING ATOMS THAT ARE RELATED BY CRYSTALLOGRAPHIC             
 500 SYMMETRY ARE IN CLOSE CONTACT.  AN ATOM LOCATED WITHIN 0.15          
 500 ANGSTROMS OF A SYMMETRY RELATED ATOM IS ASSUMED TO BE ON A           
 500 SPECIAL POSITION AND IS, THEREFORE, LISTED IN REMARK 375             
 500 INSTEAD OF REMARK 500.  ATOMS WITH NON-BLANK ALTERNATE               
 500 LOCATION INDICATORS ARE NOT INCLUDED IN THE CALCULATIONS.            
 500                                                                      
 500 DISTANCE CUTOFF:                                                     
 500 2.2 ANGSTROMS FOR CONTACTS NOT INVOLVING HYDROGEN ATOMS              
 500 1.6 ANGSTROMS FOR CONTACTS INVOLVING HYDROGEN ATOMS                  
 500                                                                      
 500  ATM1  RES C  SSEQI   ATM2  RES C  SSEQI  SSYMOP   DISTANCE          
 500   O    HOH A   543     O    HOH A   591     4555     2.15            
 500                                                                      
 500 REMARK: NULL                                                         
 500                                                                      
 500 GEOMETRY AND STEREOCHEMISTRY                                         
 500 SUBTOPIC: TORSION ANGLES                                             
 500                                                                      
 500 TORSION ANGLES OUTSIDE THE EXPECTED RAMACHANDRAN REGIONS:            
 500 (M=MODEL NUMBER; RES=RESIDUE NAME; C=CHAIN IDENTIFIER;               
 500 SSEQ=SEQUENCE NUMBER; I=INSERTION CODE).                             
 500                                                                      
 500 STANDARD TABLE:                                                      
 500 FORMAT:(10X,I3,1X,A3,1X,A1,I4,A1,4X,F7.2,3X,F7.2)                    
 500                                                                      
 500 EXPECTED VALUES: GJ KLEYWEGT AND TA JONES (1996). PHI/PSI-           
 500 CHOLOGY: RAMACHANDRAN REVISITED. STRUCTURE 4, 1395 - 1400            
 500                                                                      
 500  M RES CSSEQI        PSI       PHI                                   
 500    CYS A  69     -137.21     56.86                                   
 500    VAL A 103     -142.25   -118.91                                   
 500    SER A 130       56.69     27.66                                   
 500    SER A 220     -123.00    -99.69                                   
 500                                                                      
 500 REMARK: NULL                                                         
 800                                                                      
 800 SITE                                                                 
 800 SITE_IDENTIFIER: AC1                                                 
 800 EVIDENCE_CODE: SOFTWARE                                              
 800 SITE_DESCRIPTION: binding site for residue CAZ A 301                 
 800                                                                      
 800 SITE_IDENTIFIER: AC2                                                 
 800 EVIDENCE_CODE: SOFTWARE                                              
 800 SITE_DESCRIPTION: binding site for residue EDO A 302                 
 800                                                                      
 800 SITE_IDENTIFIER: AC3                                                 
 800 EVIDENCE_CODE: SOFTWARE                                              
 800 SITE_DESCRIPTION: binding site for residue EDO A 303                 
 900                                                                      
 900 RELATED ENTRIES                                                      
 900 RELATED ID: 5TWD   RELATED DB: PDB                                   
 900 RELATED ID: 5TWE   RELATED DB: PDB                                   

>  <DBREF>  (1) 
 5TW6 A   25   290  UNP    Q9L5C7   Q9L5C7_ECOLX    29    291             

>  <SEQADV>  (1) 
 5TW6 ALA A  166  UNP  Q9L5C7    GLU   169 ENGINEERED MUTATION            
 5TW6 SER A  167  UNP  Q9L5C7    PRO   170 ENGINEERED MUTATION            

>  <SEQRES>  (1) 
   1 A  263  GLN THR SER ALA VAL GLN GLN LYS LEU ALA ALA LEU GLU          
   2 A  263  LYS SER SER GLY GLY ARG LEU GLY VAL ALA LEU ILE ASP          
   3 A  263  THR ALA ASP ASN THR GLN VAL LEU TYR ARG GLY ASP GLU          
   4 A  263  ARG PHE PRO MET CYS SER THR SER LYS VAL MET ALA ALA          
   5 A  263  ALA ALA VAL LEU LYS GLN SER GLU THR GLN LYS GLN LEU          
   6 A  263  LEU ASN GLN PRO VAL GLU ILE LYS PRO ALA ASP LEU VAL          
   7 A  263  ASN TYR ASN PRO ILE ALA GLU LYS HIS VAL ASN GLY THR          
   8 A  263  MET THR LEU ALA GLU LEU SER ALA ALA ALA LEU GLN TYR          
   9 A  263  SER ASP ASN THR ALA MET ASN LYS LEU ILE ALA GLN LEU          
  10 A  263  GLY GLY PRO GLY GLY VAL THR ALA PHE ALA ARG ALA ILE          
  11 A  263  GLY ASP GLU THR PHE ARG LEU ASP ARG THR ALA SER THR          
  12 A  263  LEU ASN THR ALA ILE PRO GLY ASP PRO ARG ASP THR THR          
  13 A  263  THR PRO ARG ALA MET ALA GLN THR LEU ARG GLN LEU THR          
  14 A  263  LEU GLY HIS ALA LEU GLY GLU THR GLN ARG ALA GLN LEU          
  15 A  263  VAL THR TRP LEU LYS GLY ASN THR THR GLY ALA ALA SER          
  16 A  263  ILE ARG ALA GLY LEU PRO THR SER TRP THR VAL GLY ASP          
  17 A  263  LYS THR GLY SER GLY ASP TYR GLY THR THR ASN ASP ILE          
  18 A  263  ALA VAL ILE TRP PRO GLN GLY ARG ALA PRO LEU VAL LEU          
  19 A  263  VAL THR TYR PHE THR GLN PRO GLN GLN ASN ALA GLU SER          
  20 A  263  ARG ARG ASP VAL LEU ALA SER ALA ALA ARG ILE ILE ALA          
  21 A  263  GLU GLY LEU                                                  

>  <HET>  (1) 
 CAZ  A 301      31                                                       
 EDO  A 302       4                                                       
 EDO  A 303       4                                                       

>  <HETNAM>  (1) 
     CAZ ACYLATED CEFTAZIDIME                                             
     EDO 1,2-ETHANEDIOL                                                   

>  <HETSYN>  (1) 
     EDO ETHYLENE GLYCOL                                                  

>  <FORMUL>  (1) 
   2  CAZ    C17 H19 N5 O7 S2                                             
   3  EDO    2(C2 H6 O2)                                                  
   5  HOH   *248(H2 O)                                                    

>  <HELIX>  (1) 
   1 AA1 SER A   27  GLY A   41  1                                  15    
   2 AA2 CYS A   69  THR A   71  5                                   3    
   3 AA3 SER A   72  GLU A   85  1                                  14    
   4 AA4 GLN A   89  ASN A   92  5                                   4    
   5 AA5 LYS A   98  LEU A  102  5                                   5    
   6 AA6 ILE A  108  VAL A  113  5                                   6    
   7 AA7 LEU A  119  TYR A  129  1                                  11    
   8 AA8 ASP A  131  LEU A  142  1                                  12    
   9 AA9 GLY A  144  ILE A  155  1                                  12    
  10 AB1 THR A  182  LEU A  195  1                                  14    
  11 AB2 GLY A  200  GLY A  213  1                                  14    
  12 AB3 SER A  220  LEU A  225  5                                   6    
  13 AB4 ARG A  275  GLU A  288  1                                  14    

>  <SHEET>  (1) 
   1 AA1 5 GLN A  56  TYR A  60  0                                        
   2 AA1 5 ARG A  43  ASP A  50 -1  N  VAL A  46   O  TYR A  60           
   3 AA1 5 LEU A 259  THR A 266 -1  O  THR A 266   N  ARG A  43           
   4 AA1 5 THR A 244  TRP A 251 -1  N  ILE A 250   O  LEU A 259           
   5 AA1 5 THR A 230  SER A 237 -1  N  THR A 230   O  TRP A 251           
   1 AA2 2 PHE A  66  PRO A  67  0                                        
   2 AA2 2 THR A 180  THR A 181 -1  O  THR A 181   N  PHE A  66           
   1 AA3 2 PRO A  94  ILE A  97  0                                        
   2 AA3 2 GLY A 115  THR A 118 -1  O  MET A 117   N  VAL A  95           

>  <SITE>  (1) 
   1 AC1 19 ASP A  53  ASN A  54  CYS A  69  SER A  70                    
   2 AC1 19 ASN A 104  TYR A 105  SER A 130  ASN A 132                    
   3 AC1 19 ASN A 170  THR A 171  LYS A 234  THR A 235                    
   4 AC1 19 GLY A 236  SER A 237  GLY A 238  ASP A 240                    
   5 AC1 19 ARG A 276  EDO A 302  HOH A 534                               
   1 AC2  4 CYS A  69  SER A  70  CAZ A 301  HOH A 410                    
   1 AC3  6 ILE A 155  GLY A 156  ASP A 157  ALA A 185                    
   2 AC3  6 GLN A 188  THR A 189                                          

>  <ORIGX1>  (1) 
      1.000000  0.000000  0.000000        0.00000                         

>  <ORIGX2>  (1) 
      0.000000  1.000000  0.000000        0.00000                         

>  <ORIGX3>  (1) 
      0.000000  0.000000  1.000000        0.00000                         

>  <SCALE1>  (1) 
      0.024073  0.013899  0.000000        0.00000                         

>  <SCALE2>  (1) 
      0.000000  0.027797  0.000000        0.00000                         

>  <SCALE3>  (1) 
      0.000000  0.000000  0.004326        0.00000                         

>  <ANISOU>  (1) 
  315  N   SER A  70      883   1691   1749    230     49    492       N  
  316  CA  SER A  70     1344   2262   2083    247     10    480       C  
  317  C   SER A  70      924   2022   1629    189   -137    329       C  
  318  O   SER A  70     1190   2367   1813    184   -162    306       O  
  319  CB  SER A  70     1689   2665   2220    444    127    581       C  
  320  OG  SER A  70     2326   3093   2862    442    252    701       O  

>  <MASTER>  (1) 
      397    0    3   13    9    0    8    6 2218    1   39   21          

$$$$
