start_structures/Ligand_Substrate/Ligand_Complex_Stripped/25N_4LV3.pdb
     RDKit          3D

 23 23  0  0  1  0  0  0  0  0999 V2000
   48.7944   51.8800   46.3353 N   0  0  0  0  0  0  0  0  0  0  0  0
   47.4442   51.3857   46.5437 C   0  0  2  0  0  0  0  0  0  0  0  0
   47.4025   49.8898   46.4393 C   0  0  0  0  0  0  0  0  0  0  0  0
   46.4739   49.2695   46.9363 O   0  0  0  0  0  0  0  0  0  0  0  0
   46.5128   52.0060   45.5112 C   0  0  0  0  0  0  0  0  0  0  0  0
   46.1722   53.3190   45.8743 O   0  0  0  0  0  0  0  0  0  0  0  0
   45.3441   53.8961   44.7850 B   0  0  0  0  0  0  0  0  0  0  0  0
   44.1134   53.1014   44.6004 O   0  0  0  0  0  0  0  0  0  0  0  0
   46.1027   53.9139   43.5184 O   0  0  0  0  0  0  0  0  0  0  0  0
   44.9578   55.3775   45.1854 C   0  0  0  0  0  0  0  0  0  0  0  0
   45.8143   56.4375   44.8705 C   0  0  0  0  0  0  0  0  0  0  0  0
   45.5258   57.7485   45.2836 C   0  0  0  0  0  0  0  0  0  0  0  0
   46.4233   58.9024   44.8782 C   0  0  0  0  0  0  0  0  0  0  0  0
   46.3732   60.0333   45.8947 C   0  0  0  0  0  0  0  0  0  0  0  0
   45.9678   59.4407   43.5354 C   0  0  0  0  0  0  0  0  0  0  0  0
   47.8754   58.4649   44.7566 C   0  0  0  0  0  0  0  0  0  0  0  0
   44.3361   57.9815   45.9942 C   0  0  0  0  0  0  0  0  0  0  0  0
   43.4572   56.9336   46.3166 C   0  0  0  0  0  0  0  0  0  0  0  0
   42.2266   57.1906   47.1655 C   0  0  0  0  0  0  0  0  0  0  0  0
   41.1194   56.1927   46.8607 C   0  0  0  0  0  0  0  0  0  0  0  0
   41.6625   58.5829   46.9244 C   0  0  0  0  0  0  0  0  0  0  0  0
   42.5968   57.0675   48.6313 C   0  0  0  0  0  0  0  0  0  0  0  0
   43.8009   55.6277   45.9308 C   0  0  0  0  0  0  0  0  0  0  0  0
  2  1  1  6
  2  5  1  0
  2  3  1  0
  3  4  2  0
  6  7  1  0
  6  5  1  0
  7  8  1  0
  7  9  1  0
  7 10  1  0
 10 11  2  0
 10 23  1  0
 11 12  1  0
 12 13  1  0
 12 17  2  0
 13 14  1  0
 13 15  1  0
 13 16  1  0
 17 18  1  0
 18 19  1  0
 18 23  2  0
 19 20  1  0
 19 21  1  0
 19 22  1  0
M  CHG  1   7  -1
M  END
>  <HEADER>  (1) 
    HYDROLASE/HYDROLASE INHIBITOR           25-JUL-13   4LV3              

>  <TITLE>  (1) 
    AMPC BETA-LACTAMASE IN COMPLEX WITH (3,5-DI-TERT-BUTYLPHENYL) BORONIC 
   2 ACID                                                                 

>  <COMPND>  (1) 
    MOL_ID: 1;                                                            
   2 MOLECULE: BETA-LACTAMASE;                                            
   3 CHAIN: A, B;                                                         
   4 SYNONYM: CEPHALOSPORINASE;                                           
   5 EC: 3.5.2.6;                                                         
   6 ENGINEERED: YES                                                      

>  <SOURCE>  (1) 
    MOL_ID: 1;                                                            
   2 ORGANISM_SCIENTIFIC: ESCHERICHIA COLI;                               
   3 ORGANISM_TAXID: 83333;                                               
   4 STRAIN: K12;                                                         
   5 GENE: AMPA, AMPC, B4150, JW4111;                                     
   6 EXPRESSION_SYSTEM: ESCHERICHIA COLI;                                 
   7 EXPRESSION_SYSTEM_TAXID: 562;                                        
   8 EXPRESSION_SYSTEM_STRAIN: JM109;                                     
   9 EXPRESSION_SYSTEM_VECTOR_TYPE: PLASMID;                              
  10 EXPRESSION_SYSTEM_PLASMID: POGO295                                   

>  <KEYWDS>  (1) 
    AMPC BETA-LACTAMASE, CLASS C, HYDROLASE, BORONIC ACID, COVALENT       
   2 INHIBITOR, HYDROLASE-HYDROLASE INHIBITOR COMPLEX                     

>  <EXPDTA>  (1) 
    X-RAY DIFFRACTION                                                     

>  <AUTHOR>  (1) 
    N.LONDON,O.EIDAM,B.K.SHOICHET                                         

>  <REVDAT>  (1) 
   3   26-NOV-14 4LV3    1       JRNL                                     
   2   05-NOV-14 4LV3    1       JRNL                                     
   1   30-JUL-14 4LV3    0                                                

>  <JRNL>  (1) 
      AUTH   N.LONDON,R.M.MILLER,S.KRISHNAN,K.UCHIDA,J.J.IRWIN,O.EIDAM,   
      AUTH 2 L.GIBOLD,P.CIMERMANCIC,R.BONNET,B.K.SHOICHET,J.TAUNTON       
      TITL   COVALENT DOCKING OF LARGE LIBRARIES FOR THE DISCOVERY OF     
      TITL 2 CHEMICAL PROBES.                                             
      REF    NAT.CHEM.BIOL.                V.  10  1066 2014              
      REFN                   ISSN 1552-4450                               
      PMID   25344815                                                     
      DOI    10.1038/NCHEMBIO.1666                                        

>  <REMARK>  (1) 
   2                                                                      
   2 RESOLUTION.    1.42 ANGSTROMS.                                       
   3                                                                      
   3 REFINEMENT.                                                          
   3   PROGRAM     : PHENIX (PHENIX.REFINE: 1.8_1069)                     
   3   AUTHORS     : PAUL ADAMS,PAVEL AFONINE,VINCENT CHEN,IAN            
   3               : DAVIS,KRESHNA GOPAL,RALF GROSSE-                     
   3               : KUNSTLEVE,LI-WEI HUNG,ROBERT IMMORMINO,              
   3               : TOM IOERGER,AIRLIE MCCOY,ERIK MCKEE,NIGEL            
   3               : MORIARTY,REETAL PAI,RANDY READ,JANE                  
   3               : RICHARDSON,DAVID RICHARDSON,TOD ROMO,JIM             
   3               : SACCHETTINI,NICHOLAS SAUTER,JACOB SMITH,             
   3               : LAURENT STORONI,TOM TERWILLIGER,PETER                
   3               : ZWART                                                
   3                                                                      
   3    REFINEMENT TARGET : ML                                            
   3                                                                      
   3  DATA USED IN REFINEMENT.                                            
   3   RESOLUTION RANGE HIGH (ANGSTROMS) : 1.42                           
   3   RESOLUTION RANGE LOW  (ANGSTROMS) : 44.18                          
   3   MIN(FOBS/SIGMA_FOBS)              : 1.990                          
   3   COMPLETENESS FOR RANGE        (%) : 96.6                           
   3   NUMBER OF REFLECTIONS             : 144017                         
   3                                                                      
   3  FIT TO DATA USED IN REFINEMENT.                                     
   3   R VALUE     (WORKING + TEST SET) : 0.179                           
   3   R VALUE            (WORKING SET) : 0.178                           
   3   FREE R VALUE                     : 0.192                           
   3   FREE R VALUE TEST SET SIZE   (%) : 3.820                           
   3   FREE R VALUE TEST SET COUNT      : 5499                            
   3                                                                      
   3  FIT TO DATA USED IN REFINEMENT (IN BINS).                           
   3   BIN  RESOLUTION RANGE  COMPL.    NWORK NFREE   RWORK  RFREE        
   3     1 44.1810 -  4.4108    0.94     4628   179  0.1602 0.1879        
   3     2  4.4108 -  3.5014    0.98     4715   202  0.1452 0.1376        
   3     3  3.5014 -  3.0589    0.99     4786   180  0.1714 0.1833        
   3     4  3.0589 -  2.7793    0.99     4744   216  0.1869 0.2025        
   3     5  2.7793 -  2.5801    0.99     4732   178  0.1878 0.1946        
   3     6  2.5801 -  2.4280    0.99     4722   194  0.1781 0.2013        
   3     7  2.4280 -  2.3064    0.98     4714   180  0.1798 0.2067        
   3     8  2.3064 -  2.2060    0.97     4644   151  0.1874 0.2063        
   3     9  2.2060 -  2.1211    0.98     4640   205  0.1774 0.2018        
   3    10  2.1211 -  2.0479    0.98     4679   199  0.1764 0.1996        
   3    11  2.0479 -  1.9839    0.97     4711   164  0.1820 0.2012        
   3    12  1.9839 -  1.9272    0.97     4610   169  0.1863 0.1852        
   3    13  1.9272 -  1.8764    0.97     4654   144  0.1912 0.1846        
   3    14  1.8764 -  1.8307    0.97     4678   162  0.1773 0.2135        
   3    15  1.8307 -  1.7890    0.97     4644   180  0.1731 0.1709        
   3    16  1.7890 -  1.7510    0.97     4581   184  0.1746 0.1994        
   3    17  1.7510 -  1.7159    0.97     4647   155  0.1896 0.2044        
   3    18  1.7159 -  1.6836    0.97     4595   190  0.1847 0.1828        
   3    19  1.6836 -  1.6535    0.97     4641   194  0.1788 0.2180        
   3    20  1.6535 -  1.6255    0.96     4564   190  0.1833 0.2203        
   3    21  1.6255 -  1.5992    0.96     4539   189  0.1863 0.1961        
   3    22  1.5992 -  1.5746    0.96     4562   190  0.1890 0.2045        
   3    23  1.5746 -  1.5515    0.96     4573   191  0.1951 0.2051        
   3    24  1.5515 -  1.5296    0.96     4545   189  0.2063 0.2094        
   3    25  1.5296 -  1.5089    0.95     4534   189  0.2205 0.2325        
   3    26  1.5089 -  1.4893    0.95     4568   190  0.2238 0.2289        
   3    27  1.4893 -  1.4707    0.95     4467   186  0.2177 0.2469        
   3    28  1.4707 -  1.4530    0.95     4535   189  0.2236 0.2577        
   3    29  1.4530 -  1.4361    0.94     4463   186  0.2264 0.2330        
   3    30  1.4361 -  1.4200    0.93     4403   184  0.2392 0.2512        
   3                                                                      
   3  BULK SOLVENT MODELLING.                                             
   3   METHOD USED        : FLAT BULK SOLVENT MODEL                       
   3   SOLVENT RADIUS     : 1.11                                          
   3   SHRINKAGE RADIUS   : 0.90                                          
   3   K_SOL              : NULL                                          
   3   B_SOL              : NULL                                          
   3                                                                      
   3  ERROR ESTIMATES.                                                    
   3   COORDINATE ERROR (MAXIMUM-LIKELIHOOD BASED)     : 0.110            
   3   PHASE ERROR (DEGREES, MAXIMUM-LIKELIHOOD BASED) : 18.290           
   3                                                                      
   3  B VALUES.                                                           
   3   FROM WILSON PLOT           (A**2) : 14.24                          
   3   MEAN B VALUE      (OVERALL, A**2) : 26.40                          
   3   OVERALL ANISOTROPIC B VALUE.                                       
   3    B11 (A**2) : NULL                                                 
   3    B22 (A**2) : NULL                                                 
   3    B33 (A**2) : NULL                                                 
   3    B12 (A**2) : NULL                                                 
   3    B13 (A**2) : NULL                                                 
   3    B23 (A**2) : NULL                                                 
   3                                                                      
   3  TWINNING INFORMATION.                                               
   3   FRACTION: NULL                                                     
   3   OPERATOR: NULL                                                     
   3                                                                      
   3  DEVIATIONS FROM IDEAL VALUES.                                       
   3                 RMSD          COUNT                                  
   3   BOND      :  0.012           5718                                  
   3   ANGLE     :  1.462           7861                                  
   3   CHIRALITY :  0.091            860                                  
   3   PLANARITY :  0.009           1012                                  
   3   DIHEDRAL  : 13.804           2049                                  
   3                                                                      
   3  TLS DETAILS                                                         
   3   NUMBER OF TLS GROUPS  : 6                                          
   3   TLS GROUP : 1                                                      
   3    SELECTION: (chain A and resid 4:83)                               
   3    ORIGIN FOR THE GROUP (A):  23.9039  -9.5764  24.1143              
   3    T TENSOR                                                          
   3      T11:   0.2190 T22:   0.1549                                     
   3      T33:   0.1462 T12:   0.0030                                     
   3      T13:   0.0163 T23:   0.0001                                     
   3    L TENSOR                                                          
   3      L11:   1.1099 L22:   1.1760                                     
   3      L33:   0.6767 L12:   0.4708                                     
   3      L13:  -0.1263 L23:  -0.1146                                     
   3    S TENSOR                                                          
   3      S11:  -0.0136 S12:  -0.1627 S13:  -0.0538                       
   3      S21:   0.1365 S22:  -0.0344 S23:   0.0652                       
   3      S31:   0.1717 S32:  -0.0294 S33:   0.0506                       
   3   TLS GROUP : 2                                                      
   3    SELECTION: (chain A and resid 84:139)                             
   3    ORIGIN FOR THE GROUP (A):  39.2994  13.1322   5.4625              
   3    T TENSOR                                                          
   3      T11:   0.2416 T22:   0.1864                                     
   3      T33:   0.1597 T12:  -0.0064                                     
   3      T13:   0.0155 T23:   0.0193                                     
   3    L TENSOR                                                          
   3      L11:   1.0056 L22:   1.0644                                     
   3      L33:   1.0863 L12:  -0.2261                                     
   3      L13:  -0.1491 L23:  -0.4040                                     
   3    S TENSOR                                                          
   3      S11:  -0.0534 S12:   0.2170 S13:   0.0350                       
   3      S21:  -0.3237 S22:  -0.0093 S23:  -0.0813                       
   3      S31:   0.1077 S32:   0.0789 S33:   0.0531                       
   3   TLS GROUP : 3                                                      
   3    SELECTION: (chain A and resid 140:361)                            
   3    ORIGIN FOR THE GROUP (A):  32.9866  -1.2196  20.3568              
   3    T TENSOR                                                          
   3      T11:   0.1634 T22:   0.1409                                     
   3      T33:   0.1198 T12:   0.0239                                     
   3      T13:   0.0010 T23:   0.0084                                     
   3    L TENSOR                                                          
   3      L11:   1.1356 L22:   1.4687                                     
   3      L33:   0.3973 L12:   0.7076                                     
   3      L13:  -0.0905 L23:  -0.0298                                     
   3    S TENSOR                                                          
   3      S11:  -0.0030 S12:  -0.0841 S13:  -0.0329                       
   3      S21:   0.0464 S22:  -0.0353 S23:  -0.0724                       
   3      S31:   0.1182 S32:   0.0461 S33:   0.0371                       
   3   TLS GROUP : 4                                                      
   3    SELECTION: (chain B and resid 4:86)                               
   3    ORIGIN FOR THE GROUP (A):  78.6433 -10.8700  24.4040              
   3    T TENSOR                                                          
   3      T11:   0.1269 T22:   0.1580                                     
   3      T33:   0.1584 T12:   0.0006                                     
   3      T13:  -0.0177 T23:   0.0047                                     
   3    L TENSOR                                                          
   3      L11:   0.4668 L22:   0.8887                                     
   3      L33:   0.6986 L12:  -0.4831                                     
   3      L13:  -0.4127 L23:   0.2529                                     
   3    S TENSOR                                                          
   3      S11:  -0.0308 S12:  -0.0414 S13:  -0.0364                       
   3      S21:   0.0101 S22:   0.0388 S23:  -0.0179                       
   3      S31:   0.0788 S32:   0.0331 S33:  -0.0101                       
   3   TLS GROUP : 5                                                      
   3    SELECTION: (chain B and resid 87:149)                             
   3    ORIGIN FOR THE GROUP (A):  66.0095  16.0030  36.1049              
   3    T TENSOR                                                          
   3      T11:   0.1998 T22:   0.1918                                     
   3      T33:   0.1676 T12:   0.0133                                     
   3      T13:   0.0016 T23:  -0.0135                                     
   3    L TENSOR                                                          
   3      L11:   0.4841 L22:   1.0925                                     
   3      L33:   1.2947 L12:   0.0588                                     
   3      L13:  -0.1452 L23:   0.3846                                     
   3    S TENSOR                                                          
   3      S11:  -0.0188 S12:  -0.1764 S13:   0.0603                       
   3      S21:   0.2057 S22:   0.0428 S23:   0.0079                       
   3      S31:  -0.0668 S32:   0.0300 S33:  -0.0189                       
   3   TLS GROUP : 6                                                      
   3    SELECTION: (chain B and resid 150:361)                            
   3    ORIGIN FOR THE GROUP (A):  71.4967  -2.9240  25.8112              
   3    T TENSOR                                                          
   3      T11:   0.1143 T22:   0.1344                                     
   3      T33:   0.1422 T12:  -0.0113                                     
   3      T13:  -0.0132 T23:  -0.0017                                     
   3    L TENSOR                                                          
   3      L11:   0.7278 L22:   1.0739                                     
   3      L33:   0.8473 L12:  -0.4809                                     
   3      L13:  -0.1512 L23:  -0.0098                                     
   3    S TENSOR                                                          
   3      S11:   0.0083 S12:  -0.0102 S13:  -0.0336                       
   3      S21:  -0.0116 S22:   0.0254 S23:  -0.0066                       
   3      S31:   0.0421 S32:   0.0094 S33:  -0.0364                       
   3                                                                      
   3  NCS DETAILS                                                         
   3   NUMBER OF NCS GROUPS : NULL                                        
   3                                                                      
   3  OTHER REFINEMENT REMARKS: NULL                                      
   4                                                                      
   4 4LV3 COMPLIES WITH FORMAT V. 3.30, 13-JUL-11                         
 100                                                                      
 100 THIS ENTRY HAS BEEN PROCESSED BY RCSB ON 06-AUG-13.                  
 100 THE RCSB ID CODE IS RCSB081123.                                      
 200                                                                      
 200 EXPERIMENTAL DETAILS                                                 
 200  EXPERIMENT TYPE                : X-RAY DIFFRACTION                  
 200  DATE OF DATA COLLECTION        : 31-OCT-12                          
 200  TEMPERATURE           (KELVIN) : 80                                 
 200  PH                             : 8.8                                
 200  NUMBER OF CRYSTALS USED        : 1                                  
 200                                                                      
 200  SYNCHROTRON              (Y/N) : Y                                  
 200  RADIATION SOURCE               : ALS                                
 200  BEAMLINE                       : 8.3.1                              
 200  X-RAY GENERATOR MODEL          : NULL                               
 200  MONOCHROMATIC OR LAUE    (M/L) : M                                  
 200  WAVELENGTH OR RANGE        (A) : 1.11587                            
 200  MONOCHROMATOR                  : DOUBLE FLAT CRYSTAL, SI(111)       
 200  OPTICS                         : NULL                               
 200                                                                      
 200  DETECTOR TYPE                  : CCD                                
 200  DETECTOR MANUFACTURER          : ADSC QUANTUM 315R                  
 200  INTENSITY-INTEGRATION SOFTWARE : XSCALE                             
 200  DATA SCALING SOFTWARE          : XSCALE                             
 200                                                                      
 200  NUMBER OF UNIQUE REFLECTIONS   : 144020                             
 200  RESOLUTION RANGE HIGH      (A) : 1.420                              
 200  RESOLUTION RANGE LOW       (A) : 50.000                             
 200  REJECTION CRITERIA  (SIGMA(I)) : -3.000                             
 200                                                                      
 200 OVERALL.                                                             
 200  COMPLETENESS FOR RANGE     (%) : 96.5                               
 200  DATA REDUNDANCY                : NULL                               
 200  R MERGE                    (I) : 0.03500                            
 200  R SYM                      (I) : NULL                               
 200  <I/SIGMA(I)> FOR THE DATA SET  : 21.7200                            
 200                                                                      
 200 IN THE HIGHEST RESOLUTION SHELL.                                     
 200  HIGHEST RESOLUTION SHELL, RANGE HIGH (A) : 1.42                     
 200  HIGHEST RESOLUTION SHELL, RANGE LOW  (A) : 1.46                     
 200  COMPLETENESS FOR SHELL     (%) : 93.9                               
 200  DATA REDUNDANCY IN SHELL       : NULL                               
 200  R MERGE FOR SHELL          (I) : 0.42100                            
 200  R SYM FOR SHELL            (I) : NULL                               
 200  <I/SIGMA(I)> FOR SHELL         : 3.470                              
 200                                                                      
 200 DIFFRACTION PROTOCOL: SINGLE WAVELENGTH                              
 200 METHOD USED TO DETERMINE THE STRUCTURE: MOLECULAR REPLACEMENT        
 200 SOFTWARE USED: NULL                                                  
 200 STARTING MODEL: PDB ENTRY 1KE4                                       
 200                                                                      
 200 REMARK: NULL                                                         
 280                                                                      
 280 CRYSTAL                                                              
 280 SOLVENT CONTENT, VS   (%): 51.57                                     
 280 MATTHEWS COEFFICIENT, VM (ANGSTROMS**3/DA): 2.54                     
 280                                                                      
 280 CRYSTALLIZATION CONDITIONS: 1.7 M POTASSIUM PHOSPHATE, PH 8.8,       
 280  VAPOR DIFFUSION, HANGING DROP, TEMPERATURE 293K                     
 290                                                                      
 290 CRYSTALLOGRAPHIC SYMMETRY                                            
 290 SYMMETRY OPERATORS FOR SPACE GROUP: C 1 2 1                          
 290                                                                      
 290      SYMOP   SYMMETRY                                                
 290     NNNMMM   OPERATOR                                                
 290       1555   X,Y,Z                                                   
 290       2555   -X,Y,-Z                                                 
 290       3555   X+1/2,Y+1/2,Z                                           
 290       4555   -X+1/2,Y+1/2,-Z                                         
 290                                                                      
 290     WHERE NNN -> OPERATOR NUMBER                                     
 290           MMM -> TRANSLATION VECTOR                                  
 290                                                                      
 290 CRYSTALLOGRAPHIC SYMMETRY TRANSFORMATIONS                            
 290 THE FOLLOWING TRANSFORMATIONS OPERATE ON THE ATOM/HETATM             
 290 RECORDS IN THIS ENTRY TO PRODUCE CRYSTALLOGRAPHICALLY                
 290 RELATED MOLECULES.                                                   
 290   SMTRY1   1  1.000000  0.000000  0.000000        0.00000            
 290   SMTRY2   1  0.000000  1.000000  0.000000        0.00000            
 290   SMTRY3   1  0.000000  0.000000  1.000000        0.00000            
 290   SMTRY1   2 -1.000000  0.000000  0.000000        0.00000            
 290   SMTRY2   2  0.000000  1.000000  0.000000        0.00000            
 290   SMTRY3   2  0.000000  0.000000 -1.000000        0.00000            
 290   SMTRY1   3  1.000000  0.000000  0.000000       59.27500            
 290   SMTRY2   3  0.000000  1.000000  0.000000       38.39500            
 290   SMTRY3   3  0.000000  0.000000  1.000000        0.00000            
 290   SMTRY1   4 -1.000000  0.000000  0.000000       59.27500            
 290   SMTRY2   4  0.000000  1.000000  0.000000       38.39500            
 290   SMTRY3   4  0.000000  0.000000 -1.000000        0.00000            
 290                                                                      
 290 REMARK: NULL                                                         
 300                                                                      
 300 BIOMOLECULE: 1, 2                                                    
 300 SEE REMARK 350 FOR THE AUTHOR PROVIDED AND/OR PROGRAM                
 300 GENERATED ASSEMBLY INFORMATION FOR THE STRUCTURE IN                  
 300 THIS ENTRY. THE REMARK MAY ALSO PROVIDE INFORMATION ON               
 300 BURIED SURFACE AREA.                                                 
 350                                                                      
 350 COORDINATES FOR A COMPLETE MULTIMER REPRESENTING THE KNOWN           
 350 BIOLOGICALLY SIGNIFICANT OLIGOMERIZATION STATE OF THE                
 350 MOLECULE CAN BE GENERATED BY APPLYING BIOMT TRANSFORMATIONS          
 350 GIVEN BELOW.  BOTH NON-CRYSTALLOGRAPHIC AND                          
 350 CRYSTALLOGRAPHIC OPERATIONS ARE GIVEN.                               
 350                                                                      
 350 BIOMOLECULE: 1                                                       
 350 AUTHOR DETERMINED BIOLOGICAL UNIT: MONOMERIC                         
 350 SOFTWARE DETERMINED QUATERNARY STRUCTURE: MONOMERIC                  
 350 SOFTWARE USED: PISA                                                  
 350 APPLY THE FOLLOWING TO CHAINS: A                                     
 350   BIOMT1   1  1.000000  0.000000  0.000000        0.00000            
 350   BIOMT2   1  0.000000  1.000000  0.000000        0.00000            
 350   BIOMT3   1  0.000000  0.000000  1.000000        0.00000            
 350                                                                      
 350 BIOMOLECULE: 2                                                       
 350 AUTHOR DETERMINED BIOLOGICAL UNIT: MONOMERIC                         
 350 SOFTWARE DETERMINED QUATERNARY STRUCTURE: MONOMERIC                  
 350 SOFTWARE USED: PISA                                                  
 350 APPLY THE FOLLOWING TO CHAINS: B                                     
 350   BIOMT1   1  1.000000  0.000000  0.000000        0.00000            
 350   BIOMT2   1  0.000000  1.000000  0.000000        0.00000            
 350   BIOMT3   1  0.000000  0.000000  1.000000        0.00000            
 465                                                                      
 465 MISSING RESIDUES                                                     
 465 THE FOLLOWING RESIDUES WERE NOT LOCATED IN THE                       
 465 EXPERIMENT. (M=MODEL NUMBER; RES=RESIDUE NAME; C=CHAIN               
 465 IDENTIFIER; SSSEQ=SEQUENCE NUMBER; I=INSERTION CODE.)                
 465                                                                      
 465   M RES C SSSEQI                                                     
 465     ILE A   284                                                      
 465     ASN A   285                                                      
 465     GLY A   286                                                      
 465     SER A   287                                                      
 465     ASP A   288                                                      
 465     ASN A   289                                                      
 470                                                                      
 470 MISSING ATOM                                                         
 470 THE FOLLOWING RESIDUES HAVE MISSING ATOMS (M=MODEL NUMBER;           
 470 RES=RESIDUE NAME; C=CHAIN IDENTIFIER; SSEQ=SEQUENCE NUMBER;          
 470 I=INSERTION CODE):                                                   
 470   M RES CSSEQI  ATOMS                                                
 470     ILE A  11    CD1                                                 
 470     GLU A  21    CG   CD   OE1  OE2                                  
 470     GLN A  22    CG   CD   OE1  NE2                                  
 470     LYS A  24    CG   CD   CE   NZ                                   
 470     LYS A  37    CG   CD   CE   NZ                                   
 470     LYS A  51    NZ                                                  
 470     LYS A  84    NZ                                                  
 470     LYS A  99    CG   CD   CE   NZ                                   
 470     ASP A 123    OD1  OD2                                            
 470     LYS A 126    CE   NZ                                             
 470     LYS A 183    CE   NZ                                             
 470     ARG A 204    NE   CZ   NH1  NH2                                  
 470     GLU A 205    CG   CD   OE1  OE2                                  
 470     LYS A 207    CG   CD   CE   NZ                                   
 470     LYS A 239    CE   NZ                                             
 470     ASN A 244    CG   OD1  ND2                                       
 470     LYS A 246    CG   CD   CE   NZ                                   
 470     VAL A 278    CG1  CG2                                            
 470     ASN A 279    CG   OD1  ND2                                       
 470     ASP A 281    CG   OD1  OD2                                       
 470     SER A 282    OG                                                  
 470     LYS A 290    CG   CD   CE   NZ                                   
 470     LYS A 299    CD   CE   NZ                                        
 470     LYS B  24    CE   NZ                                             
 470     LYS B  37    CG   CD   CE   NZ                                   
 470     LYS B  50    NZ                                                  
 470     LYS B  51    NZ                                                  
 470     GLN B  52    OE1  NE2                                            
 470     GLN B  56    CD   OE1  NE2                                       
 470     LYS B  99    NZ                                                  
 470     GLN B 120    CG   CD   OE1  NE2                                  
 470     LYS B 126    CG   CD   CE   NZ                                   
 470     LYS B 164    NZ                                                  
 470     LYS B 183    CE   NZ                                             
 470     GLU B 205    CG   CD   OE1  OE2                                  
 470     LYS B 207    CG   CD   CE   NZ                                   
 470     GLU B 228    CG   CD   OE1  OE2                                  
 470     LYS B 239    NZ                                                  
 470     ASN B 244    CG   OD1  ND2                                       
 470     LYS B 246    CG   CD   CE   NZ                                   
 470     LYS B 299    CG   CD   CE   NZ                                   
 470     GLU B 331    CD   OE1  OE2                                       
 500                                                                      
 500 GEOMETRY AND STEREOCHEMISTRY                                         
 500 SUBTOPIC: TORSION ANGLES                                             
 500                                                                      
 500 TORSION ANGLES OUTSIDE THE EXPECTED RAMACHANDRAN REGIONS:            
 500 (M=MODEL NUMBER; RES=RESIDUE NAME; C=CHAIN IDENTIFIER;               
 500 SSEQ=SEQUENCE NUMBER; I=INSERTION CODE).                             
 500                                                                      
 500 STANDARD TABLE:                                                      
 500 FORMAT:(10X,I3,1X,A3,1X,A1,I4,A1,4X,F7.2,3X,F7.2)                    
 500                                                                      
 500 EXPECTED VALUES: GJ KLEYWEGT AND TA JONES (1996). PHI/PSI-           
 500 CHOLOGY: RAMACHANDRAN REVISITED. STRUCTURE 4, 1395 - 1400            
 500                                                                      
 500  M RES CSSEQI        PSI       PHI                                   
 500    VAL A 178      -60.62   -123.73                                   
 500    TYR A 221       11.29   -157.27                                   
 500    ASN A 341       40.10   -100.15                                   
 500    LYS B 126       17.99   -152.58                                   
 500    VAL B 178      -60.52   -122.72                                   
 500    TYR B 221       19.67   -159.03                                   
 500    ASN B 341       42.66   -100.78                                   
 500                                                                      
 500 REMARK: NULL                                                         
 800                                                                      
 800 SITE                                                                 
 800 SITE_IDENTIFIER: AC1                                                 
 800 EVIDENCE_CODE: SOFTWARE                                              
 800 SITE_DESCRIPTION: BINDING SITE FOR RESIDUE 25N A 401                 
 800                                                                      
 800 SITE_IDENTIFIER: AC2                                                 
 800 EVIDENCE_CODE: SOFTWARE                                              
 800 SITE_DESCRIPTION: BINDING SITE FOR RESIDUE PO4 A 402                 
 800                                                                      
 800 SITE_IDENTIFIER: AC3                                                 
 800 EVIDENCE_CODE: SOFTWARE                                              
 800 SITE_DESCRIPTION: BINDING SITE FOR RESIDUE 25N B 401                 
 900                                                                      
 900 RELATED ENTRIES                                                      
 900 RELATED ID: 4LV0   RELATED DB: PDB                                   
 900 RELATED ID: 4LV1   RELATED DB: PDB                                   
 900 RELATED ID: 4LV2   RELATED DB: PDB                                   

>  <DBREF>  (1) 
 4LV3 A    4   361  UNP    P00811   AMPC_ECOLI      20    377             
 4LV3 B    4   361  UNP    P00811   AMPC_ECOLI      20    377             

>  <SEQRES>  (1) 
   1 A  358  ALA PRO GLN GLN ILE ASN ASP ILE VAL HIS ARG THR ILE          
   2 A  358  THR PRO LEU ILE GLU GLN GLN LYS ILE PRO GLY MET ALA          
   3 A  358  VAL ALA VAL ILE TYR GLN GLY LYS PRO TYR TYR PHE THR          
   4 A  358  TRP GLY TYR ALA ASP ILE ALA LYS LYS GLN PRO VAL THR          
   5 A  358  GLN GLN THR LEU PHE GLU LEU GLY SER VAL SER LYS THR          
   6 A  358  PHE THR GLY VAL LEU GLY GLY ASP ALA ILE ALA ARG GLY          
   7 A  358  GLU ILE LYS LEU SER ASP PRO THR THR LYS TYR TRP PRO          
   8 A  358  GLU LEU THR ALA LYS GLN TRP ASN GLY ILE THR LEU LEU          
   9 A  358  HIS LEU ALA THR TYR THR ALA GLY GLY LEU PRO LEU GLN          
  10 A  358  VAL PRO ASP GLU VAL LYS SER SER SER ASP LEU LEU ARG          
  11 A  358  PHE TYR GLN ASN TRP GLN PRO ALA TRP ALA PRO GLY THR          
  12 A  358  GLN ARG LEU TYR ALA ASN SER SER ILE GLY LEU PHE GLY          
  13 A  358  ALA LEU ALA VAL LYS PRO SER GLY LEU SER PHE GLU GLN          
  14 A  358  ALA MET GLN THR ARG VAL PHE GLN PRO LEU LYS LEU ASN          
  15 A  358  HIS THR TRP ILE ASN VAL PRO PRO ALA GLU GLU LYS ASN          
  16 A  358  TYR ALA TRP GLY TYR ARG GLU GLY LYS ALA VAL HIS VAL          
  17 A  358  SER PRO GLY ALA LEU ASP ALA GLU ALA TYR GLY VAL LYS          
  18 A  358  SER THR ILE GLU ASP MET ALA ARG TRP VAL GLN SER ASN          
  19 A  358  LEU LYS PRO LEU ASP ILE ASN GLU LYS THR LEU GLN GLN          
  20 A  358  GLY ILE GLN LEU ALA GLN SER ARG TYR TRP GLN THR GLY          
  21 A  358  ASP MET TYR GLN GLY LEU GLY TRP GLU MET LEU ASP TRP          
  22 A  358  PRO VAL ASN PRO ASP SER ILE ILE ASN GLY SER ASP ASN          
  23 A  358  LYS ILE ALA LEU ALA ALA ARG PRO VAL LYS ALA ILE THR          
  24 A  358  PRO PRO THR PRO ALA VAL ARG ALA SER TRP VAL HIS LYS          
  25 A  358  THR GLY ALA THR GLY GLY PHE GLY SER TYR VAL ALA PHE          
  26 A  358  ILE PRO GLU LYS GLU LEU GLY ILE VAL MET LEU ALA ASN          
  27 A  358  LYS ASN TYR PRO ASN PRO ALA ARG VAL ASP ALA ALA TRP          
  28 A  358  GLN ILE LEU ASN ALA LEU GLN                                  
   1 B  358  ALA PRO GLN GLN ILE ASN ASP ILE VAL HIS ARG THR ILE          
   2 B  358  THR PRO LEU ILE GLU GLN GLN LYS ILE PRO GLY MET ALA          
   3 B  358  VAL ALA VAL ILE TYR GLN GLY LYS PRO TYR TYR PHE THR          
   4 B  358  TRP GLY TYR ALA ASP ILE ALA LYS LYS GLN PRO VAL THR          
   5 B  358  GLN GLN THR LEU PHE GLU LEU GLY SER VAL SER LYS THR          
   6 B  358  PHE THR GLY VAL LEU GLY GLY ASP ALA ILE ALA ARG GLY          
   7 B  358  GLU ILE LYS LEU SER ASP PRO THR THR LYS TYR TRP PRO          
   8 B  358  GLU LEU THR ALA LYS GLN TRP ASN GLY ILE THR LEU LEU          
   9 B  358  HIS LEU ALA THR TYR THR ALA GLY GLY LEU PRO LEU GLN          
  10 B  358  VAL PRO ASP GLU VAL LYS SER SER SER ASP LEU LEU ARG          
  11 B  358  PHE TYR GLN ASN TRP GLN PRO ALA TRP ALA PRO GLY THR          
  12 B  358  GLN ARG LEU TYR ALA ASN SER SER ILE GLY LEU PHE GLY          
  13 B  358  ALA LEU ALA VAL LYS PRO SER GLY LEU SER PHE GLU GLN          
  14 B  358  ALA MET GLN THR ARG VAL PHE GLN PRO LEU LYS LEU ASN          
  15 B  358  HIS THR TRP ILE ASN VAL PRO PRO ALA GLU GLU LYS ASN          
  16 B  358  TYR ALA TRP GLY TYR ARG GLU GLY LYS ALA VAL HIS VAL          
  17 B  358  SER PRO GLY ALA LEU ASP ALA GLU ALA TYR GLY VAL LYS          
  18 B  358  SER THR ILE GLU ASP MET ALA ARG TRP VAL GLN SER ASN          
  19 B  358  LEU LYS PRO LEU ASP ILE ASN GLU LYS THR LEU GLN GLN          
  20 B  358  GLY ILE GLN LEU ALA GLN SER ARG TYR TRP GLN THR GLY          
  21 B  358  ASP MET TYR GLN GLY LEU GLY TRP GLU MET LEU ASP TRP          
  22 B  358  PRO VAL ASN PRO ASP SER ILE ILE ASN GLY SER ASP ASN          
  23 B  358  LYS ILE ALA LEU ALA ALA ARG PRO VAL LYS ALA ILE THR          
  24 B  358  PRO PRO THR PRO ALA VAL ARG ALA SER TRP VAL HIS LYS          
  25 B  358  THR GLY ALA THR GLY GLY PHE GLY SER TYR VAL ALA PHE          
  26 B  358  ILE PRO GLU LYS GLU LEU GLY ILE VAL MET LEU ALA ASN          
  27 B  358  LYS ASN TYR PRO ASN PRO ALA ARG VAL ASP ALA ALA TRP          
  28 B  358  GLN ILE LEU ASN ALA LEU GLN                                  

>  <HET>  (1) 
 25N  A 401      17                                                       
 PO4  A 402       5                                                       
 25N  B 401      17                                                       

>  <HETNAM>  (1) 
     25N (3,5-DI-TERT-BUTYLPHENYL)BORONIC ACID                            
     PO4 PHOSPHATE ION                                                    

>  <FORMUL>  (1) 
   3  25N    2(C14 H23 B O2)                                              
   4  PO4    O4 P 3-                                                      
   6  HOH   *699(H2 O)                                                    

>  <HELIX>  (1) 
   1   1 PRO A    5  LYS A   24  1                                  20    
   2   2 VAL A   65  ARG A   80  1                                  16    
   3   3 PRO A   88  TRP A   93  1                                   6    
   4   4 ALA A   98  ASN A  102  5                                   5    
   5   5 THR A  105  THR A  111  1                                   7    
   6   6 SER A  127  TRP A  138  1                                  12    
   7   7 ALA A  151  VAL A  163  1                                  13    
   8   8 SER A  169  VAL A  178  1                                  10    
   9   9 PRO A  192  TYR A  199  5                                   8    
  10  10 LEU A  216  TYR A  221  1                                   6    
  11  11 THR A  226  LYS A  239  1                                  14    
  12  12 PRO A  240  ILE A  243  5                                   4    
  13  13 GLU A  245  GLN A  256  1                                  12    
  14  14 PRO A  330  GLU A  333  5                                   4    
  15  15 PRO A  345  GLN A  361  1                                  17    
  16  16 PRO B    5  LYS B   24  1                                  20    
  17  17 VAL B   65  ARG B   80  1                                  16    
  18  18 PRO B   88  TRP B   93  1                                   6    
  19  19 ALA B   98  ASN B  102  5                                   5    
  20  20 THR B  105  THR B  111  1                                   7    
  21  21 SER B  127  TRP B  138  1                                  12    
  22  22 ALA B  151  VAL B  163  1                                  13    
  23  23 SER B  169  VAL B  178  1                                  10    
  24  24 PRO B  192  TYR B  199  5                                   8    
  25  25 LEU B  216  GLY B  222  1                                   7    
  26  26 ILE B  227  LYS B  239  1                                  13    
  27  27 PRO B  240  ILE B  243  5                                   4    
  28  28 GLU B  245  GLN B  256  1                                  12    
  29  29 ASN B  279  SER B  287  1                                   9    
  30  30 ASP B  288  LEU B  293  1                                   6    
  31  31 PRO B  330  GLU B  333  5                                   4    
  32  32 PRO B  345  GLN B  361  1                                  17    

>  <SHEET>  (1) 
   1   A10 GLN A  52  PRO A  53  0                                        
   2   A10 LYS A  37  ASP A  47 -1  N  ALA A  46   O  GLN A  52           
   3   A10 GLY A  27  TYR A  34 -1  N  VAL A  30   O  PHE A  41           
   4   A10 LEU A 334  ALA A 340 -1  O  GLY A 335   N  ILE A  33           
   5   A10 GLY A 323  ILE A 329 -1  N  ILE A 329   O  LEU A 334           
   6   A10 SER A 311  ALA A 318 -1  N  VAL A 313   O  PHE A 328           
   7   A10 GLU A 272  ASP A 275 -1  N  LEU A 274   O  TRP A 312           
   8   A10 MET A 265  GLN A 267 -1  N  TYR A 266   O  MET A 273           
   9   A10 ARG A 258  THR A 262 -1  N  THR A 262   O  MET A 265           
  10   A10 LYS A 299  THR A 305 -1  O  LYS A 299   N  GLN A 261           
   1   B 2 PHE A  60  GLU A  61  0                                        
   2   B 2 LYS A 224  SER A 225 -1  O  SER A 225   N  PHE A  60           
   1   C 2 GLN A 147  ARG A 148  0                                        
   2   C 2 ARG A 296  PRO A 297 -1  O  ARG A 296   N  ARG A 148           
   1   D 2 GLY A 202  ARG A 204  0                                        
   2   D 2 LYS A 207  VAL A 209 -1  O  VAL A 209   N  GLY A 202           
   1   E10 GLN B  52  PRO B  53  0                                        
   2   E10 LYS B  37  ASP B  47 -1  N  ALA B  46   O  GLN B  52           
   3   E10 GLY B  27  TYR B  34 -1  N  VAL B  30   O  PHE B  41           
   4   E10 LEU B 334  ALA B 340 -1  O  GLY B 335   N  ILE B  33           
   5   E10 PHE B 322  ILE B 329 -1  N  TYR B 325   O  MET B 338           
   6   E10 SER B 311  THR B 319 -1  N  GLY B 317   O  SER B 324           
   7   E10 GLU B 272  ASP B 275 -1  N  LEU B 274   O  TRP B 312           
   8   E10 MET B 265  GLN B 267 -1  N  TYR B 266   O  MET B 273           
   9   E10 ARG B 258  THR B 262 -1  N  THR B 262   O  MET B 265           
  10   E10 LYS B 299  THR B 305 -1  O  THR B 305   N  ARG B 258           
   1   F 2 LEU B  59  GLU B  61  0                                        
   2   F 2 LYS B 224  THR B 226 -1  O  SER B 225   N  PHE B  60           
   1   G 2 GLN B 147  ARG B 148  0                                        
   2   G 2 ARG B 296  PRO B 297 -1  O  ARG B 296   N  ARG B 148           
   1   H 2 GLY B 202  ARG B 204  0                                        
   2   H 2 LYS B 207  VAL B 209 -1  O  VAL B 209   N  GLY B 202           

>  <LINK>  (1) 
       OG  SER B  64                 B03 25N B 401     1555   1555  1.46  
       OG  SER A  64                 B03 25N A 401     1555   1555  1.47  

>  <CISPEP>  (1) 
   1 TRP A  276    PRO A  277          0         6.82                     
   2 THR A  302    PRO A  303          0         0.54                     
   3 TRP B  276    PRO B  277          0         3.34                     
   4 THR B  302    PRO B  303          0         0.68                     

>  <SITE>  (1) 
   1 AC1  9 SER A  64  LEU A 119  GLN A 120  TYR A 150                    
   2 AC1  9 ASN A 152  GLY A 317  ALA A 318  HOH A 573                    
   3 AC1  9 HOH A 639                                                     
   1 AC2  8 ARG A 133  HIS A 186  HOH A 658  HOH A 708                    
   2 AC2  8 HOH A 772  HOH A 792  HOH A 806  LYS B 290                    
   1 AC3  9 SER B  64  LEU B 119  TYR B 150  ASN B 152                    
   2 AC3  9 TYR B 221  GLY B 317  ALA B 318  HOH B 538                    
   3 AC3  9 HOH B 888                                                     

>  <ORIGX1>  (1) 
      1.000000  0.000000  0.000000        0.00000                         

>  <ORIGX2>  (1) 
      0.000000  1.000000  0.000000        0.00000                         

>  <ORIGX3>  (1) 
      0.000000  0.000000  1.000000        0.00000                         

>  <SCALE1>  (1) 
      0.008435  0.000000  0.004063        0.00000                         

>  <SCALE2>  (1) 
      0.000000  0.013023  0.000000        0.00000                         

>  <SCALE3>  (1) 
      0.000000  0.000000  0.011317        0.00000                         

>  <ANISOU>  (1) 
  479  N   SER A  64     2485   2204   2458     95   -120    -98       N  
  480  CA  SER A  64     2445   2174   2408    110   -123   -104       C  
  481  C   SER A  64     2478   2200   2362    129   -105   -112       C  
  482  O   SER A  64     2487   2226   2372    141   -113   -111       O  
  483  CB  SER A  64     2674   2426   2722    115   -133   -130       C  
  484  OG  SER A  64     2501   2256   2639    102   -157   -110       O  

>  <MASTER>  (1) 
      421    0    3   32   32    0    8    6 6178    2   41   56          

$$$$
