start_structures/Ligand_Substrate/Ligand_Complex_Stripped/C8V_6B1J.pdb
     RDKit          3D

 32 33  0  0  1  0  0  0  0  0999 V2000
   48.7959   51.8783   46.3359 N   0  0  0  0  0  0  0  0  0  0  0  0
   47.4464   51.3818   46.5441 C   0  0  2  0  0  0  0  0  0  0  0  0
   47.4045   49.8867   46.4405 C   0  0  0  0  0  0  0  0  0  0  0  0
   46.4743   49.2678   46.9364 O   0  0  0  0  0  0  0  0  0  0  0  0
   46.5135   52.0016   45.5107 C   0  0  0  0  0  0  0  0  0  0  0  0
   46.1655   53.3337   45.8725 O   0  0  0  0  0  0  0  0  0  0  0  0
   42.5413   59.6463   50.5189 O   0  0  0  0  0  0  0  0  0  0  0  0
   42.6667   58.4204   51.6933 S   0  0  0  0  0  0  0  0  0  0  0  0
   41.1361   57.7281   51.9681 O   0  0  0  0  0  0  0  0  0  0  0  0
   43.2424   59.0956   53.1448 O   0  0  0  0  0  0  0  0  0  0  0  0
   43.7569   57.2225   51.1640 O   0  0  0  0  0  0  0  0  0  0  0  0
   43.2199   56.7479   50.0142 N   0  0  0  0  0  0  0  0  0  0  0  0
   44.3258   56.4190   49.1315 C   0  0  2  0  0  0  0  0  0  0  0  0
   44.7936   57.6776   48.3847 C   0  0  0  0  0  0  0  0  0  0  0  0
   45.2091   57.4314   46.9270 C   0  0  0  0  0  0  0  0  0  0  0  0
   43.9122   55.2997   48.1839 C   0  0  0  0  0  0  0  0  0  0  0  0
   45.0185   54.9783   47.2817 N   0  0  0  0  0  0  0  0  0  0  0  0
   45.2220   53.6207   46.8642 C   0  0  0  0  0  0  0  0  0  0  0  0
   44.5543   52.6892   47.3930 O   0  0  0  0  0  0  0  0  0  0  0  0
   45.8381   56.0504   46.7019 C   0  0  2  0  0  0  0  0  0  0  0  0
   47.2462   55.9843   47.2113 C   0  0  0  0  0  0  0  0  0  0  0  0
   47.4991   56.1962   48.4283 O   0  0  0  0  0  0  0  0  0  0  0  0
   48.2940   55.6304   46.3118 N   0  0  0  0  0  0  0  0  0  0  0  0
   49.6118   55.4791   46.7610 N   0  0  0  0  0  0  0  0  0  0  0  0
   50.6498   55.0843   45.8671 C   0  0  0  0  0  0  0  0  0  0  0  0
   50.3947   54.8723   44.6502 O   0  0  0  0  0  0  0  0  0  0  0  0
   52.0367   54.9103   46.3882 C   0  0  2  0  0  0  0  0  0  0  0  0
   53.0070   55.8597   45.6850 C   0  0  0  0  0  0  0  0  0  0  0  0
   54.4411   55.6389   46.1741 C   0  0  0  0  0  0  0  0  0  0  0  0
   54.7379   54.1634   46.4712 C   0  0  0  0  0  0  0  0  0  0  0  0
   53.8289   53.2910   45.7313 N   0  0  0  0  0  0  0  0  0  0  0  0
   52.4765   53.4383   46.2791 C   0  0  0  0  0  0  0  0  0  0  0  0
  2  1  1  6
  3  4  2  0
  3  2  1  0
  5  6  1  0
  5  2  1  0
  6 18  1  0
  7  8  1  0
  8  9  1  0
  8 10  1  0
  8 11  1  0
 11 12  1  0
 13 12  1  6
 13 14  1  0
 13 16  1  0
 14 15  1  0
 15 20  1  0
 16 17  1  0
 17 18  1  0
 17 20  1  0
 18 19  2  0
 20 21  1  1
 21 22  2  0
 21 23  1  0
 23 24  1  0
 24 25  1  0
 25 26  2  0
 27 25  1  6
 27 28  1  0
 27 32  1  0
 28 29  1  0
 29 30  1  0
 30 31  1  0
 31 32  1  0
M  END
>  <HEADER>  (1) 
    HYDROLASE/HYDROLASE INHIBITOR           18-SEP-17   6B1J              

>  <TITLE>  (1) 
    CRYSTAL STRUCTURE KPC-2 BETA-LACTAMASE COMPLEXED WITH WCK 5107 BY     
   2 SOAKING                                                              

>  <COMPND>  (1) 
    MOL_ID: 1;                                                            
   2 MOLECULE: CARBAPENEM-HYDROLYZING BETA-LACTAMASE KPC;                 
   3 CHAIN: A, B;                                                         
   4 SYNONYM: CARBAPENEM-HYDROLYZING BETA-LACTAMASE KPC-1;                
   5 EC: 3.5.2.6;                                                         
   6 ENGINEERED: YES                                                      

>  <SOURCE>  (1) 
    MOL_ID: 1;                                                            
   2 ORGANISM_SCIENTIFIC: KLEBSIELLA PNEUMONIAE;                          
   3 ORGANISM_TAXID: 573;                                                 
   4 GENE: BLA, KPC, KPC1;                                                
   5 EXPRESSION_SYSTEM: ESCHERICHIA COLI;                                 
   6 EXPRESSION_SYSTEM_TAXID: 562                                         

>  <KEYWDS>  (1) 
    INHIBITOR, COMPLEX, HYDROLASE, HYDROLASE-HYDROLASE INHIBITOR COMPLEX  

>  <EXPDTA>  (1) 
    X-RAY DIFFRACTION                                                     

>  <AUTHOR>  (1) 
    F.VAN DEN AKKER,N.Q.NGUYEN                                            

>  <REVDAT>  (1) 
   1   01-AUG-18 6B1J    0                                                

>  <JRNL>  (1) 
      AUTH   K.M.PAPP-WALLACE,N.Q.NGUYEN,M.R.JACOBS,C.R.BETHEL,           
      AUTH 2 M.D.BARNES,V.KUMAR,S.BAJAKSOUZIAN,S.D.RUDIN,P.N.RATHER,      
      AUTH 3 S.BHAVSAR,T.RAVIKUMAR,P.K.DESHPANDE,V.PATIL,R.YEOLE,         
      AUTH 4 S.S.BHAGWAT,M.V.PATEL,F.VAN DEN AKKER,R.A.BONOMO             
      TITL   STRATEGIC APPROACHES TO OVERCOME RESISTANCE AGAINST          
      TITL 2 GRAM-NEGATIVE PATHOGENS USING BETA-LACTAMASE INHIBITORS AND  
      TITL 3 BETA-LACTAM ENHANCERS: ACTIVITY OF THREE NOVEL               
      TITL 4 DIAZABICYCLOOCTANES WCK 5153, ZIDEBACTAM (WCK 5107), AND WCK 
      TITL 5 4234.                                                        
      REF    J. MED. CHEM.                 V.  61  4067 2018              
      REFN                   ISSN 1520-4804                               
      PMID   29627985                                                     
      DOI    10.1021/ACS.JMEDCHEM.8B00091                                 

>  <REMARK>  (1) 
   2                                                                      
   2 RESOLUTION.    1.60 ANGSTROMS.                                       
   3                                                                      
   3 REFINEMENT.                                                          
   3   PROGRAM     : REFMAC 5.8.0135                                      
   3   AUTHORS     : MURSHUDOV,SKUBAK,LEBEDEV,PANNU,STEINER,              
   3               : NICHOLLS,WINN,LONG,VAGIN                             
   3                                                                      
   3    REFINEMENT TARGET : NULL                                          
   3                                                                      
   3  DATA USED IN REFINEMENT.                                            
   3   RESOLUTION RANGE HIGH (ANGSTROMS) : 1.60                           
   3   RESOLUTION RANGE LOW  (ANGSTROMS) : 34.29                          
   3   DATA CUTOFF            (SIGMA(F)) : 0.000                          
   3   COMPLETENESS FOR RANGE        (%) : 94.8                           
   3   NUMBER OF REFLECTIONS             : 48543                          
   3                                                                      
   3  FIT TO DATA USED IN REFINEMENT.                                     
   3   CROSS-VALIDATION METHOD          : THROUGHOUT                      
   3   FREE R VALUE TEST SET SELECTION  : RANDOM                          
   3   R VALUE     (WORKING + TEST SET) : 0.152                           
   3   R VALUE            (WORKING SET) : 0.150                           
   3   FREE R VALUE                     : 0.187                           
   3   FREE R VALUE TEST SET SIZE   (%) : 5.100                           
   3   FREE R VALUE TEST SET COUNT      : 2590                            
   3                                                                      
   3  FIT IN THE HIGHEST RESOLUTION BIN.                                  
   3   TOTAL NUMBER OF BINS USED           : 20                           
   3   BIN RESOLUTION RANGE HIGH       (A) : 1.60                         
   3   BIN RESOLUTION RANGE LOW        (A) : 1.64                         
   3   REFLECTION IN BIN     (WORKING SET) : 3459                         
   3   BIN COMPLETENESS (WORKING+TEST) (%) : 90.68                        
   3   BIN R VALUE           (WORKING SET) : 0.2570                       
   3   BIN FREE R VALUE SET COUNT          : 200                          
   3   BIN FREE R VALUE                    : 0.2900                       
   3                                                                      
   3  NUMBER OF NON-HYDROGEN ATOMS USED IN REFINEMENT.                    
   3   PROTEIN ATOMS            : 3977                                    
   3   NUCLEIC ACID ATOMS       : 0                                       
   3   HETEROGEN ATOMS          : 131                                     
   3   SOLVENT ATOMS            : 385                                     
   3                                                                      
   3  B VALUES.                                                           
   3   FROM WILSON PLOT           (A**2) : NULL                           
   3   MEAN B VALUE      (OVERALL, A**2) : 14.00                          
   3   OVERALL ANISOTROPIC B VALUE.                                       
   3    B11 (A**2) : 0.00000                                              
   3    B22 (A**2) : 0.00000                                              
   3    B33 (A**2) : -0.01000                                             
   3    B12 (A**2) : 0.00000                                              
   3    B13 (A**2) : 0.00000                                              
   3    B23 (A**2) : 0.00000                                              
   3                                                                      
   3  ESTIMATED OVERALL COORDINATE ERROR.                                 
   3   ESU BASED ON R VALUE                            (A): 0.096         
   3   ESU BASED ON FREE R VALUE                       (A): 0.095         
   3   ESU BASED ON MAXIMUM LIKELIHOOD                 (A): 0.066         
   3   ESU FOR B VALUES BASED ON MAXIMUM LIKELIHOOD (A**2): 1.924         
   3                                                                      
   3 CORRELATION COEFFICIENTS.                                            
   3   CORRELATION COEFFICIENT FO-FC      : 0.969                         
   3   CORRELATION COEFFICIENT FO-FC FREE : 0.955                         
   3                                                                      
   3  RMS DEVIATIONS FROM IDEAL VALUES        COUNT    RMS    WEIGHT      
   3   BOND LENGTHS REFINED ATOMS        (A):  4227 ; 0.014 ; 0.020       
   3   BOND LENGTHS OTHERS               (A):  4008 ; 0.003 ; 0.020       
   3   BOND ANGLES REFINED ATOMS   (DEGREES):  5747 ; 1.792 ; 1.982       
   3   BOND ANGLES OTHERS          (DEGREES):  9198 ; 1.100 ; 3.006       
   3   TORSION ANGLES, PERIOD 1    (DEGREES):   541 ; 6.301 ; 5.000       
   3   TORSION ANGLES, PERIOD 2    (DEGREES):   166 ;34.040 ;23.434       
   3   TORSION ANGLES, PERIOD 3    (DEGREES):   630 ;13.084 ;15.000       
   3   TORSION ANGLES, PERIOD 4    (DEGREES):    31 ;15.964 ;15.000       
   3   CHIRAL-CENTER RESTRAINTS       (A**3):   648 ; 0.294 ; 0.200       
   3   GENERAL PLANES REFINED ATOMS      (A):  4816 ; 0.009 ; 0.021       
   3   GENERAL PLANES OTHERS             (A):   939 ; 0.003 ; 0.020       
   3   NON-BONDED CONTACTS REFINED ATOMS (A):  NULL ;  NULL ;  NULL       
   3   NON-BONDED CONTACTS OTHERS        (A):  NULL ;  NULL ;  NULL       
   3   NON-BONDED TORSION REFINED ATOMS  (A):  NULL ;  NULL ;  NULL       
   3   NON-BONDED TORSION OTHERS         (A):  NULL ;  NULL ;  NULL       
   3   H-BOND (X...Y) REFINED ATOMS      (A):  NULL ;  NULL ;  NULL       
   3   H-BOND (X...Y) OTHERS             (A):  NULL ;  NULL ;  NULL       
   3   POTENTIAL METAL-ION REFINED ATOMS (A):  NULL ;  NULL ;  NULL       
   3   POTENTIAL METAL-ION OTHERS        (A):  NULL ;  NULL ;  NULL       
   3   SYMMETRY VDW REFINED ATOMS        (A):  NULL ;  NULL ;  NULL       
   3   SYMMETRY VDW OTHERS               (A):  NULL ;  NULL ;  NULL       
   3   SYMMETRY H-BOND REFINED ATOMS     (A):  NULL ;  NULL ;  NULL       
   3   SYMMETRY H-BOND OTHERS            (A):  NULL ;  NULL ;  NULL       
   3   SYMMETRY METAL-ION REFINED ATOMS  (A):  NULL ;  NULL ;  NULL       
   3   SYMMETRY METAL-ION OTHERS         (A):  NULL ;  NULL ;  NULL       
   3                                                                      
   3  ISOTROPIC THERMAL FACTOR RESTRAINTS.     COUNT   RMS    WEIGHT      
   3   MAIN-CHAIN BOND REFINED ATOMS  (A**2):  NULL ;  NULL ;  NULL       
   3   MAIN-CHAIN BOND OTHER ATOMS    (A**2):  NULL ;  NULL ;  NULL       
   3   MAIN-CHAIN ANGLE REFINED ATOMS (A**2):  NULL ;  NULL ;  NULL       
   3   MAIN-CHAIN ANGLE OTHER ATOMS   (A**2):  NULL ;  NULL ;  NULL       
   3   SIDE-CHAIN BOND REFINED ATOMS  (A**2):  NULL ;  NULL ;  NULL       
   3   SIDE-CHAIN BOND OTHER ATOMS    (A**2):  NULL ;  NULL ;  NULL       
   3   SIDE-CHAIN ANGLE REFINED ATOMS (A**2):  NULL ;  NULL ;  NULL       
   3   SIDE-CHAIN ANGLE OTHER ATOMS   (A**2):  NULL ;  NULL ;  NULL       
   3   LONG RANGE B REFINED ATOMS     (A**2):  NULL ;  NULL ;  NULL       
   3   LONG RANGE B OTHER ATOMS       (A**2):  NULL ;  NULL ;  NULL       
   3                                                                      
   3 ANISOTROPIC THERMAL FACTOR RESTRAINTS.    COUNT   RMS   WEIGHT       
   3   RIGID-BOND RESTRAINTS          (A**2):  NULL ;  NULL ;  NULL       
   3   SPHERICITY; FREE ATOMS         (A**2):  NULL ;  NULL ;  NULL       
   3   SPHERICITY; BONDED ATOMS       (A**2):  NULL ;  NULL ;  NULL       
   3                                                                      
   3  NCS RESTRAINTS STATISTICS                                           
   3   NUMBER OF DIFFERENT NCS GROUPS : NULL                              
   3                                                                      
   3  TLS DETAILS                                                         
   3   NUMBER OF TLS GROUPS  : NULL                                       
   3                                                                      
   3  BULK SOLVENT MODELLING.                                             
   3   METHOD USED : NULL                                                 
   3   PARAMETERS FOR MASK CALCULATION                                    
   3   VDW PROBE RADIUS   : 1.20                                          
   3   ION PROBE RADIUS   : 0.80                                          
   3   SHRINKAGE RADIUS   : 0.80                                          
   3                                                                      
   3  OTHER REFINEMENT REMARKS: HYDROGENS HAVE BEEN ADDED IN THE RIDING   
   3  POSITIONS U VALUES : REFINED INDIVIDUALLY                           
   4                                                                      
   4 6B1J COMPLIES WITH FORMAT V. 3.30, 13-JUL-11                         
 100                                                                      
 100 THIS ENTRY HAS BEEN PROCESSED BY RCSB ON 19-SEP-17.                  
 100 THE DEPOSITION ID IS D_1000230143.                                   
 200                                                                      
 200 EXPERIMENTAL DETAILS                                                 
 200  EXPERIMENT TYPE                : X-RAY DIFFRACTION                  
 200  DATE OF DATA COLLECTION        : 17-MAY-15                          
 200  TEMPERATURE           (KELVIN) : 100                                
 200  PH                             : 4.0                                
 200  NUMBER OF CRYSTALS USED        : 1                                  
 200                                                                      
 200  SYNCHROTRON              (Y/N) : Y                                  
 200  RADIATION SOURCE               : SSRL                               
 200  BEAMLINE                       : BL7-1                              
 200  X-RAY GENERATOR MODEL          : NULL                               
 200  MONOCHROMATIC OR LAUE    (M/L) : M                                  
 200  WAVELENGTH OR RANGE        (A) : 1.12708                            
 200  MONOCHROMATOR                  : NULL                               
 200  OPTICS                         : NULL                               
 200                                                                      
 200  DETECTOR TYPE                  : CCD                                
 200  DETECTOR MANUFACTURER          : ADSC QUANTUM 315R                  
 200  INTENSITY-INTEGRATION SOFTWARE : XDS                                
 200  DATA SCALING SOFTWARE          : AIMLESS 0.5.8                      
 200                                                                      
 200  NUMBER OF UNIQUE REFLECTIONS   : 51151                              
 200  RESOLUTION RANGE HIGH      (A) : 1.600                              
 200  RESOLUTION RANGE LOW       (A) : 37.230                             
 200  REJECTION CRITERIA  (SIGMA(I)) : NULL                               
 200                                                                      
 200 OVERALL.                                                             
 200  COMPLETENESS FOR RANGE     (%) : 94.9                               
 200  DATA REDUNDANCY                : 2.000                              
 200  R MERGE                    (I) : 0.04600                            
 200  R SYM                      (I) : NULL                               
 200  <I/SIGMA(I)> FOR THE DATA SET  : 11.9000                            
 200                                                                      
 200 IN THE HIGHEST RESOLUTION SHELL.                                     
 200  HIGHEST RESOLUTION SHELL, RANGE HIGH (A) : 1.60                     
 200  HIGHEST RESOLUTION SHELL, RANGE LOW  (A) : 1.63                     
 200  COMPLETENESS FOR SHELL     (%) : 89.1                               
 200  DATA REDUNDANCY IN SHELL       : 1.90                               
 200  R MERGE FOR SHELL          (I) : 0.42000                            
 200  R SYM FOR SHELL            (I) : NULL                               
 200  <I/SIGMA(I)> FOR SHELL         : NULL                               
 200                                                                      
 200 DIFFRACTION PROTOCOL: SINGLE WAVELENGTH                              
 200 METHOD USED TO DETERMINE THE STRUCTURE: MOLECULAR REPLACEMENT        
 200 SOFTWARE USED: NULL                                                  
 200 STARTING MODEL: NULL                                                 
 200                                                                      
 200 REMARK: NULL                                                         
 280                                                                      
 280 CRYSTAL                                                              
 280 SOLVENT CONTENT, VS   (%): 33.77                                     
 280 MATTHEWS COEFFICIENT, VM (ANGSTROMS**3/DA): 1.86                     
 280                                                                      
 280 CRYSTALLIZATION CONDITIONS: 20% PEG 6000, 100 MM CITRATE PH 4.0,     
 280  100 MM KSCN, AND 10 MM CDCL2. CRYSTAL WAS SOAKED FOR 3HR IN 10MM    
 280  WCK 5107 AT PH 5.0, VAPOR DIFFUSION, SITTING DROP, TEMPERATURE      
 280  295K                                                                
 290                                                                      
 290 CRYSTALLOGRAPHIC SYMMETRY                                            
 290 SYMMETRY OPERATORS FOR SPACE GROUP: P 1                              
 290                                                                      
 290      SYMOP   SYMMETRY                                                
 290     NNNMMM   OPERATOR                                                
 290       1555   X,Y,Z                                                   
 290                                                                      
 290     WHERE NNN -> OPERATOR NUMBER                                     
 290           MMM -> TRANSLATION VECTOR                                  
 290                                                                      
 290 CRYSTALLOGRAPHIC SYMMETRY TRANSFORMATIONS                            
 290 THE FOLLOWING TRANSFORMATIONS OPERATE ON THE ATOM/HETATM             
 290 RECORDS IN THIS ENTRY TO PRODUCE CRYSTALLOGRAPHICALLY                
 290 RELATED MOLECULES.                                                   
 290   SMTRY1   1  1.000000  0.000000  0.000000        0.00000            
 290   SMTRY2   1  0.000000  1.000000  0.000000        0.00000            
 290   SMTRY3   1  0.000000  0.000000  1.000000        0.00000            
 290                                                                      
 290 REMARK: NULL                                                         
 300                                                                      
 300 BIOMOLECULE: 1, 2                                                    
 300 SEE REMARK 350 FOR THE AUTHOR PROVIDED AND/OR PROGRAM                
 300 GENERATED ASSEMBLY INFORMATION FOR THE STRUCTURE IN                  
 300 THIS ENTRY. THE REMARK MAY ALSO PROVIDE INFORMATION ON               
 300 BURIED SURFACE AREA.                                                 
 350                                                                      
 350 COORDINATES FOR A COMPLETE MULTIMER REPRESENTING THE KNOWN           
 350 BIOLOGICALLY SIGNIFICANT OLIGOMERIZATION STATE OF THE                
 350 MOLECULE CAN BE GENERATED BY APPLYING BIOMT TRANSFORMATIONS          
 350 GIVEN BELOW.  BOTH NON-CRYSTALLOGRAPHIC AND                          
 350 CRYSTALLOGRAPHIC OPERATIONS ARE GIVEN.                               
 350                                                                      
 350 BIOMOLECULE: 1                                                       
 350 AUTHOR DETERMINED BIOLOGICAL UNIT: MONOMERIC                         
 350 SOFTWARE DETERMINED QUATERNARY STRUCTURE: MONOMERIC                  
 350 SOFTWARE USED: PISA                                                  
 350 APPLY THE FOLLOWING TO CHAINS: A                                     
 350   BIOMT1   1  1.000000  0.000000  0.000000        0.00000            
 350   BIOMT2   1  0.000000  1.000000  0.000000        0.00000            
 350   BIOMT3   1  0.000000  0.000000  1.000000        0.00000            
 350                                                                      
 350 BIOMOLECULE: 2                                                       
 350 AUTHOR DETERMINED BIOLOGICAL UNIT: MONOMERIC                         
 350 SOFTWARE DETERMINED QUATERNARY STRUCTURE: MONOMERIC                  
 350 SOFTWARE USED: PISA                                                  
 350 APPLY THE FOLLOWING TO CHAINS: B                                     
 350   BIOMT1   1  1.000000  0.000000  0.000000        0.00000            
 350   BIOMT2   1  0.000000  1.000000  0.000000        0.00000            
 350   BIOMT3   1  0.000000  0.000000  1.000000        0.00000            
 465                                                                      
 465 MISSING RESIDUES                                                     
 465 THE FOLLOWING RESIDUES WERE NOT LOCATED IN THE                       
 465 EXPERIMENT. (M=MODEL NUMBER; RES=RESIDUE NAME; C=CHAIN               
 465 IDENTIFIER; SSSEQ=SEQUENCE NUMBER; I=INSERTION CODE.)                
 465                                                                      
 465   M RES C SSSEQI                                                     
 465     ALA B    22                                                      
 465     THR B    23                                                      
 465     ALA B    24                                                      
 500                                                                      
 500 GEOMETRY AND STEREOCHEMISTRY                                         
 500 SUBTOPIC: CLOSE CONTACTS IN SAME ASYMMETRIC UNIT                     
 500                                                                      
 500 THE FOLLOWING ATOMS ARE IN CLOSE CONTACT.                            
 500                                                                      
 500  ATM1  RES C  SSEQI   ATM2  RES C  SSEQI           DISTANCE          
 500   OG   SER B    70     OAA  C8V B   301              2.17            
 500                                                                      
 500 REMARK: NULL                                                         
 500                                                                      
 500 GEOMETRY AND STEREOCHEMISTRY                                         
 500 SUBTOPIC: COVALENT BOND ANGLES                                       
 500                                                                      
 500 THE STEREOCHEMICAL PARAMETERS OF THE FOLLOWING RESIDUES              
 500 HAVE VALUES WHICH DEVIATE FROM EXPECTED VALUES BY MORE               
 500 THAN 6*RMSD (M=MODEL NUMBER; RES=RESIDUE NAME; C=CHAIN               
 500 IDENTIFIER; SSEQ=SEQUENCE NUMBER; I=INSERTION CODE).                 
 500                                                                      
 500 STANDARD TABLE:                                                      
 500 FORMAT: (10X,I3,1X,A3,1X,A1,I4,A1,3(1X,A4,2X),12X,F5.1)              
 500                                                                      
 500 EXPECTED VALUES PROTEIN: ENGH AND HUBER, 1999                        
 500 EXPECTED VALUES NUCLEIC ACID: CLOWNEY ET AL 1996                     
 500                                                                      
 500  M RES CSSEQI ATM1   ATM2   ATM3                                     
 500    ASP A  50   CB  -  CG  -  OD2 ANGL. DEV. =  -6.6 DEGREES          
 500    ARG A 266   NE  -  CZ  -  NH1 ANGL. DEV. =   4.5 DEGREES          
 500    ARG A 266   NE  -  CZ  -  NH2 ANGL. DEV. =  -3.8 DEGREES          
 500    ARG B 256   NE  -  CZ  -  NH2 ANGL. DEV. =   3.1 DEGREES          
 500                                                                      
 500 REMARK: NULL                                                         
 500                                                                      
 500 GEOMETRY AND STEREOCHEMISTRY                                         
 500 SUBTOPIC: TORSION ANGLES                                             
 500                                                                      
 500 TORSION ANGLES OUTSIDE THE EXPECTED RAMACHANDRAN REGIONS:            
 500 (M=MODEL NUMBER; RES=RESIDUE NAME; C=CHAIN IDENTIFIER;               
 500 SSEQ=SEQUENCE NUMBER; I=INSERTION CODE).                             
 500                                                                      
 500 STANDARD TABLE:                                                      
 500 FORMAT:(10X,I3,1X,A3,1X,A1,I4,A1,4X,F7.2,3X,F7.2)                    
 500                                                                      
 500 EXPECTED VALUES: GJ KLEYWEGT AND TA JONES (1996). PHI/PSI-           
 500 CHOLOGY: RAMACHANDRAN REVISITED. STRUCTURE 4, 1395 - 1400            
 500                                                                      
 500  M RES CSSEQI        PSI       PHI                                   
 500    CYS A  69     -142.95     50.60                                   
 500    ARG A 220     -124.74   -113.42                                   
 500    CYS B  69     -139.93     48.22                                   
 500    ARG B 220     -125.05   -115.68                                   
 500                                                                      
 500 REMARK: NULL                                                         
 800                                                                      
 800 SITE                                                                 
 800 SITE_IDENTIFIER: AC1                                                 
 800 EVIDENCE_CODE: SOFTWARE                                              
 800 SITE_DESCRIPTION: binding site for residue C8V A 301                 
 800                                                                      
 800 SITE_IDENTIFIER: AC2                                                 
 800 EVIDENCE_CODE: SOFTWARE                                              
 800 SITE_DESCRIPTION: binding site for residue CIT A 302                 
 800                                                                      
 800 SITE_IDENTIFIER: AC3                                                 
 800 EVIDENCE_CODE: SOFTWARE                                              
 800 SITE_DESCRIPTION: binding site for residue CIT A 303                 
 800                                                                      
 800 SITE_IDENTIFIER: AC4                                                 
 800 EVIDENCE_CODE: SOFTWARE                                              
 800 SITE_DESCRIPTION: binding site for residue CIT A 304                 
 800                                                                      
 800 SITE_IDENTIFIER: AC5                                                 
 800 EVIDENCE_CODE: SOFTWARE                                              
 800 SITE_DESCRIPTION: binding site for residue EDO A 305                 
 800                                                                      
 800 SITE_IDENTIFIER: AC6                                                 
 800 EVIDENCE_CODE: SOFTWARE                                              
 800 SITE_DESCRIPTION: binding site for residue EDO A 306                 
 800                                                                      
 800 SITE_IDENTIFIER: AC7                                                 
 800 EVIDENCE_CODE: SOFTWARE                                              
 800 SITE_DESCRIPTION: binding site for residue EDO A 307                 
 800                                                                      
 800 SITE_IDENTIFIER: AC8                                                 
 800 EVIDENCE_CODE: SOFTWARE                                              
 800 SITE_DESCRIPTION: binding site for residue EDO A 308                 
 800                                                                      
 800 SITE_IDENTIFIER: AC9                                                 
 800 EVIDENCE_CODE: SOFTWARE                                              
 800 SITE_DESCRIPTION: binding site for residue EDO A 309                 
 800                                                                      
 800 SITE_IDENTIFIER: AD1                                                 
 800 EVIDENCE_CODE: SOFTWARE                                              
 800 SITE_DESCRIPTION: binding site for residue EDO A 310                 
 800                                                                      
 800 SITE_IDENTIFIER: AD2                                                 
 800 EVIDENCE_CODE: SOFTWARE                                              
 800 SITE_DESCRIPTION: binding site for residue EDO B 302                 
 800                                                                      
 800 SITE_IDENTIFIER: AD3                                                 
 800 EVIDENCE_CODE: SOFTWARE                                              
 800 SITE_DESCRIPTION: binding site for residue EDO B 303                 
 800                                                                      
 800 SITE_IDENTIFIER: AD4                                                 
 800 EVIDENCE_CODE: SOFTWARE                                              
 800 SITE_DESCRIPTION: binding site for residue EDO B 304                 
 800                                                                      
 800 SITE_IDENTIFIER: AD5                                                 
 800 EVIDENCE_CODE: SOFTWARE                                              
 800 SITE_DESCRIPTION: binding site for residue EDO B 305                 
 800                                                                      
 800 SITE_IDENTIFIER: AD6                                                 
 800 EVIDENCE_CODE: SOFTWARE                                              
 800 SITE_DESCRIPTION: binding site for Di-peptide C8V B 301 and SER B    
 800  70                                                                  
 900                                                                      
 900 RELATED ENTRIES                                                      
 900 RELATED ID: 6B1F   RELATED DB: PDB                                   
 900 6B1F CONTAINS THE SAME PROTEIN COMPLEXED TO WCK 4234                 

>  <DBREF>  (1) 
 6B1J A   22   291  UNP    Q9F663   BLKPC_KLEPN     22    289             
 6B1J B   22   291  UNP    Q9F663   BLKPC_KLEPN     22    289             

>  <SEQRES>  (1) 
   1 A  268  ALA THR ALA LEU THR ASN LEU VAL ALA GLU PRO PHE ALA          
   2 A  268  LYS LEU GLU GLN ASP PHE GLY GLY SER ILE GLY VAL TYR          
   3 A  268  ALA MET ASP THR GLY SER GLY ALA THR VAL SER TYR ARG          
   4 A  268  ALA GLU GLU ARG PHE PRO LEU CYS SER SER PHE LYS GLY          
   5 A  268  PHE LEU ALA ALA ALA VAL LEU ALA ARG SER GLN GLN GLN          
   6 A  268  ALA GLY LEU LEU ASP THR PRO ILE ARG TYR GLY LYS ASN          
   7 A  268  ALA LEU VAL PRO TRP SER PRO ILE SER GLU LYS TYR LEU          
   8 A  268  THR THR GLY MET THR VAL ALA GLU LEU SER ALA ALA ALA          
   9 A  268  VAL GLN TYR SER ASP ASN ALA ALA ALA ASN LEU LEU LEU          
  10 A  268  LYS GLU LEU GLY GLY PRO ALA GLY LEU THR ALA PHE MET          
  11 A  268  ARG SER ILE GLY ASP THR THR PHE ARG LEU ASP ARG TRP          
  12 A  268  GLU LEU GLU LEU ASN SER ALA ILE PRO GLY ASP ALA ARG          
  13 A  268  ASP THR SER SER PRO ARG ALA VAL THR GLU SER LEU GLN          
  14 A  268  LYS LEU THR LEU GLY SER ALA LEU ALA ALA PRO GLN ARG          
  15 A  268  GLN GLN PHE VAL ASP TRP LEU LYS GLY ASN THR THR GLY          
  16 A  268  ASN HIS ARG ILE ARG ALA ALA VAL PRO ALA ASP TRP ALA          
  17 A  268  VAL GLY ASP LYS THR GLY THR CYS GLY VAL TYR GLY THR          
  18 A  268  ALA ASN ASP TYR ALA VAL VAL TRP PRO THR GLY ARG ALA          
  19 A  268  PRO ILE VAL LEU ALA VAL TYR THR ARG ALA PRO ASN LYS          
  20 A  268  ASP ASP LYS HIS SER GLU ALA VAL ILE ALA ALA ALA ALA          
  21 A  268  ARG LEU ALA LEU GLU GLY LEU GLY                              
   1 B  268  ALA THR ALA LEU THR ASN LEU VAL ALA GLU PRO PHE ALA          
   2 B  268  LYS LEU GLU GLN ASP PHE GLY GLY SER ILE GLY VAL TYR          
   3 B  268  ALA MET ASP THR GLY SER GLY ALA THR VAL SER TYR ARG          
   4 B  268  ALA GLU GLU ARG PHE PRO LEU CYS SER SER PHE LYS GLY          
   5 B  268  PHE LEU ALA ALA ALA VAL LEU ALA ARG SER GLN GLN GLN          
   6 B  268  ALA GLY LEU LEU ASP THR PRO ILE ARG TYR GLY LYS ASN          
   7 B  268  ALA LEU VAL PRO TRP SER PRO ILE SER GLU LYS TYR LEU          
   8 B  268  THR THR GLY MET THR VAL ALA GLU LEU SER ALA ALA ALA          
   9 B  268  VAL GLN TYR SER ASP ASN ALA ALA ALA ASN LEU LEU LEU          
  10 B  268  LYS GLU LEU GLY GLY PRO ALA GLY LEU THR ALA PHE MET          
  11 B  268  ARG SER ILE GLY ASP THR THR PHE ARG LEU ASP ARG TRP          
  12 B  268  GLU LEU GLU LEU ASN SER ALA ILE PRO GLY ASP ALA ARG          
  13 B  268  ASP THR SER SER PRO ARG ALA VAL THR GLU SER LEU GLN          
  14 B  268  LYS LEU THR LEU GLY SER ALA LEU ALA ALA PRO GLN ARG          
  15 B  268  GLN GLN PHE VAL ASP TRP LEU LYS GLY ASN THR THR GLY          
  16 B  268  ASN HIS ARG ILE ARG ALA ALA VAL PRO ALA ASP TRP ALA          
  17 B  268  VAL GLY ASP LYS THR GLY THR CYS GLY VAL TYR GLY THR          
  18 B  268  ALA ASN ASP TYR ALA VAL VAL TRP PRO THR GLY ARG ALA          
  19 B  268  PRO ILE VAL LEU ALA VAL TYR THR ARG ALA PRO ASN LYS          
  20 B  268  ASP ASP LYS HIS SER GLU ALA VAL ILE ALA ALA ALA ALA          
  21 B  268  ARG LEU ALA LEU GLU GLY LEU GLY                              

>  <HET>  (1) 
 C8V  A 301      26                                                       
 CIT  A 302      13                                                       
 CIT  A 303      13                                                       
 CIT  A 304      13                                                       
 EDO  A 305       4                                                       
 EDO  A 306       4                                                       
 EDO  A 307       4                                                       
 EDO  A 308       4                                                       
 EDO  A 309       4                                                       
 EDO  A 310       4                                                       
 C8V  B 301      26                                                       
 EDO  B 302       4                                                       
 EDO  B 303       4                                                       
 EDO  B 304       4                                                       
 EDO  B 305       4                                                       

>  <HETNAM>  (1) 
     C8V (2S,5R)-1-FORMYL-N'-[(3R)-PIPERIDINE-3-CARBONYL]-5-              
   2 C8V  [(SULFOOXY)AMINO]PIPERIDINE-2-CARBOHYDRAZIDE                    
     CIT CITRIC ACID                                                      
     EDO 1,2-ETHANEDIOL                                                   

>  <HETSYN>  (1) 
     C8V OPEN FORM - ZIDEBACTAM                                           
     EDO ETHYLENE GLYCOL                                                  

>  <FORMUL>  (1) 
   3  C8V    2(C13 H23 N5 O7 S)                                           
   4  CIT    3(C6 H8 O7)                                                  
   7  EDO    10(C2 H6 O2)                                                 
  18  HOH   *385(H2 O)                                                    

>  <HELIX>  (1) 
   1 AA1 LEU A   25  GLY A   41  1                                  17    
   2 AA2 SER A   71  GLN A   87  1                                  17    
   3 AA3 GLY A   89  ASP A   92  5                                   4    
   4 AA4 GLY A   98  LEU A  102  5                                   5    
   5 AA5 ILE A  108  LEU A  113  5                                   6    
   6 AA6 VAL A  119  TYR A  129  1                                  11    
   7 AA7 ASP A  131  LEU A  142  1                                  12    
   8 AA8 GLY A  143  ILE A  155  1                                  13    
   9 AA9 LEU A  167  SER A  171  5                                   5    
  10 AB1 SER A  182  LEU A  195  1                                  14    
  11 AB2 ALA A  200  GLY A  213  1                                  14    
  12 AB3 ARG A  220  VAL A  225  5                                   6    
  13 AB4 SER A  275  GLY A  289  1                                  15    
  14 AB5 THR B   26  GLY B   41  1                                  16    
  15 AB6 SER B   71  GLN B   87  1                                  17    
  16 AB7 GLY B   98  LEU B  102  5                                   5    
  17 AB8 SER B  106  TYR B  112  1                                   7    
  18 AB9 VAL B  119  TYR B  129  1                                  11    
  19 AC1 ASP B  131  LEU B  142  1                                  12    
  20 AC2 GLY B  144  ILE B  155  1                                  12    
  21 AC3 LEU B  167  SER B  171  5                                   5    
  22 AC4 SER B  182  LEU B  195  1                                  14    
  23 AC5 ALA B  200  GLY B  213  1                                  14    
  24 AC6 ARG B  220  VAL B  225  5                                   6    
  25 AC7 SER B  275  GLY B  289  1                                  15    

>  <SHEET>  (1) 
   1 AA1 5 THR A  56  TYR A  60  0                                        
   2 AA1 5 SER A  43  ASP A  50 -1  N  VAL A  46   O  TYR A  60           
   3 AA1 5 ILE A 259  ARG A 266 -1  O  VAL A 260   N  MET A  49           
   4 AA1 5 ALA A 244  TRP A 251 -1  N  VAL A 250   O  ILE A 259           
   5 AA1 5 ALA A 230  THR A 237 -1  N  ALA A 230   O  TRP A 251           
   1 AA2 2 PHE A  66  PRO A  67  0                                        
   2 AA2 2 THR A 180  SER A 181 -1  O  SER A 181   N  PHE A  66           
   1 AA3 2 PRO A  94  ILE A  95  0                                        
   2 AA3 2 MET A 117  THR A 118 -1  O  MET A 117   N  ILE A  95           
   1 AA4 5 THR B  56  TYR B  60  0                                        
   2 AA4 5 SER B  43  ASP B  50 -1  N  VAL B  46   O  TYR B  60           
   3 AA4 5 ILE B 259  ARG B 266 -1  O  TYR B 264   N  GLY B  45           
   4 AA4 5 ALA B 244  TRP B 251 -1  N  VAL B 250   O  ILE B 259           
   5 AA4 5 ALA B 230  THR B 237 -1  N  GLY B 236   O  ASN B 245           
   1 AA5 2 PHE B  66  PRO B  67  0                                        
   2 AA5 2 THR B 180  SER B 181 -1  O  SER B 181   N  PHE B  66           
   1 AA6 2 PRO B  94  ILE B  95  0                                        
   2 AA6 2 MET B 117  THR B 118 -1  O  MET B 117   N  ILE B  95           

>  <SSBOND>  (1) 
   1 CYS A   69    CYS A  238                          1555   1555  2.07  
   2 CYS B   69    CYS B  238                          1555   1555  2.11  

>  <LINK>  (1) 
       OG  SER A  70                 CAG C8V A 301     1555   1555  1.35  
       OG  SER B  70                 CAG C8V B 301     1555   1555  1.35  

>  <CISPEP>  (1) 
   1 GLU A  166    LEU A  167          0         9.16                     
   2 GLU B  166    LEU B  167          0         6.19                     

>  <SITE>  (1) 
   1 AC1 17 CYS A  69  SER A  70  TRP A 105  SER A 130                    
   2 AC1 17 ASN A 132  ASN A 170  THR A 216  LYS A 234                    
   3 AC1 17 THR A 235  GLY A 236  THR A 237  CYS A 238                    
   4 AC1 17 HOH A 403  HOH A 411  HOH A 427  HOH A 435                    
   5 AC1 17 HOH A 537                                                     
   1 AC2 15 TYR A  97  GLY A  98  LYS A  99  ASN A 100                    
   2 AC2 15 ALA A 101  HOH A 437  HOH A 446  HOH A 453                    
   3 AC2 15 HOH A 483  HOH A 571  ARG B  96  ARG B 164                    
   4 AC2 15 ARG B 178  EDO B 303  HOH B 466                               
   1 AC3 10 PRO A  94  ARG A  96  THR A 115  ARG A 178                    
   2 AC3 10 EDO A 308  HOH A 455  HOH A 501  ASN B 100                    
   3 AC3 10 ALA B 101  LYS B 140                                          
   1 AC4 13 TRP A 105  GLN A 191  GLY A 196  SER A 197                    
   2 AC4 13 THR A 237  GLY A 239  HIS A 274  HOH A 401                    
   3 AC4 13 HOH A 403  HOH A 419  HOH A 424  HOH A 480                    
   4 AC4 13 HOH A 537                                                     
   1 AC5  6 ALA A 124  ALA A 125  GLN A 128  TYR A 129                    
   2 AC5  6 PRO A 174  HOH A 521                                          
   1 AC6  7 ALA A  82  GLN A  85  GLN A  86  VAL A 103                    
   2 AC6  7 PRO A 104  HOH A 443  HOH A 447                               
   1 AC7  3 GLU A 110  PRO A 202  GLN A 203                               
   1 AC8  6 ARG A  96  THR A 115  CIT A 303  ASN B 136                    
   2 AC8  6 TRP B 165  HOH B 467                                          
   1 AC9  4 GLN A 205  VAL A 208  LYS A 212  HOH A 520                    
   1 AD1  3 PRO A 107  ARG A 204  HOH A 402                               
   1 AD2  7 ALA B 124  ALA B 125  GLN B 128  TYR B 129                    
   2 AD2  7 ILE B 173  PRO B 174  HOH B 452                               
   1 AD3  6 CIT A 302  HOH A 437  PRO B  94  THR B 115                    
   2 AD3  6 ARG B 178  EDO B 305                                          
   1 AD4  5 GLN B 205  VAL B 208  LYS B 212  TRP B 251                    
   2 AD4  5 HOH B 438                                                     
   1 AD5  8 TYR B 112  THR B 115  GLY B 116  GLU B 121                    
   2 AD5  8 ILE B 173  ARG B 178  EDO B 303  HOH B 479                    
   1 AD6 19 LEU B  68  CYS B  69  SER B  71  PHE B  72                    
   2 AD6 19 LYS B  73  TRP B 105  SER B 130  ASN B 132                    
   3 AD6 19 LEU B 167  ASN B 170  THR B 216  LYS B 234                    
   4 AD6 19 THR B 235  GLY B 236  THR B 237  CYS B 238                    
   5 AD6 19 HOH B 408  HOH B 513  HOH B 546                               

>  <ORIGX1>  (1) 
      1.000000  0.000000  0.000000        0.00000                         

>  <ORIGX2>  (1) 
      0.000000  1.000000  0.000000        0.00000                         

>  <ORIGX3>  (1) 
      0.000000  0.000000  1.000000        0.00000                         

>  <SCALE1>  (1) 
      0.029036  0.002673  0.000127        0.00000                         

>  <SCALE2>  (1) 
      0.000000  0.026840  0.001087        0.00000                         

>  <SCALE3>  (1) 
      0.000000  0.000000  0.012186        0.00000                         

>  <MASTER>  (1) 
      364    0   15   25   18    0   38    6 4493    2  137   42          

$$$$
