start_structures/Ligand_Substrate/Ligand_Complex_Stripped/TSL_6H2K.pdb
     RDKit          3D

 21 20  0  0  1  0  0  0  0  0999 V2000
   48.7966   51.8775   46.3360 N   0  0  0  0  0  0  0  0  0  0  0  0
   47.4471   51.3815   46.5442 C   0  0  2  0  0  0  0  0  0  0  0  0
   47.4045   49.8864   46.4404 C   0  0  0  0  0  0  0  0  0  0  0  0
   46.4742   49.2679   46.9365 O   0  0  0  0  0  0  0  0  0  0  0  0
   46.5142   52.0023   45.5110 C   0  0  0  0  0  0  0  0  0  0  0  0
   46.1635   53.3344   45.8719 O   0  0  0  0  0  0  0  0  0  0  0  0
   48.4171   57.7725   47.3551 C   0  0  0  0  0  0  0  0  0  0  0  0
   48.5691   57.3998   48.8211 C   0  0  0  0  0  0  0  0  0  0  0  0
   49.6945   55.9717   48.9313 S   0  0  0  0  0  0  0  0  0  0  0  0
   48.7828   54.5908   48.5396 O   0  0  0  0  0  0  0  0  0  0  0  0
   50.0290   55.7828   50.5902 O   0  0  0  0  0  0  0  0  0  0  0  0
   49.2451   58.5738   49.5039 C   0  0  0  0  0  0  0  0  0  0  0  0
   47.1792   57.1960   49.4848 C   0  0  2  0  0  0  0  0  0  0  0  0
   47.1631   56.5793   50.8543 C   0  0  0  0  0  0  0  0  0  0  0  0
   47.2509   57.3177   51.8692 O   0  0  0  0  0  0  0  0  0  0  0  0
   47.0769   55.2014   51.0136 O   0  0  0  0  0  0  0  0  0  0  0  0
   46.1309   56.6926   48.6160 N   0  0  0  0  0  0  0  0  0  0  0  0
   46.1109   55.4867   48.1792 C   0  0  0  0  0  0  0  0  0  0  0  0
   45.0102   55.0301   47.2862 C   0  0  0  0  0  0  0  0  0  0  0  0
   45.2504   53.6171   46.8904 C   0  0  0  0  0  0  0  0  0  0  0  0
   44.6512   52.6897   47.4986 O   0  0  0  0  0  0  0  0  0  0  0  0
  2  1  1  6
  3  2  1  0
  4  3  2  0
  5  2  1  0
  5  6  1  0
  6 20  1  0
  7  8  1  0
  8  9  1  0
  8 12  1  0
 13  8  1  6
  9 10  1  0
  9 11  1  0
 13 14  1  0
 13 17  1  0
 14 15  2  0
 14 16  1  0
 17 18  2  0
 18 19  1  0
 19 20  1  0
 20 21  2  0
M  END
>  <HEADER>  (1) 
    HYDROLASE                               13-JUL-18   6H2K              

>  <TITLE>  (1) 
    STRUCTURE OF BLAC FROM MYCOBACTERIUM TUBERCULOSIS BOUND TO THE TRANS- 
   2 ENAMINE ADDUCT OF SULBACTAM.                                         

>  <COMPND>  (1) 
    MOL_ID: 1;                                                            
   2 MOLECULE: BETA-LACTAMASE;                                            
   3 CHAIN: A, B;                                                         
   4 EC: 3.5.2.6;                                                         
   5 ENGINEERED: YES                                                      

>  <SOURCE>  (1) 
    MOL_ID: 1;                                                            
   2 ORGANISM_SCIENTIFIC: MYCOBACTERIUM TUBERCULOSIS;                     
   3 ORGANISM_TAXID: 1773;                                                
   4 GENE: BLAC, ERS027646_02769;                                         
   5 EXPRESSION_SYSTEM: ESCHERICHIA COLI BL21(DE3);                       
   6 EXPRESSION_SYSTEM_TAXID: 469008                                      

>  <KEYWDS>  (1) 
    HYDROLASE                                                             

>  <EXPDTA>  (1) 
    X-RAY DIFFRACTION                                                     

>  <AUTHOR>  (1) 
    R.TASSONI,N.S.PANNU,M.UBBINK                                          

>  <REVDAT>  (1) 
   2   27-FEB-19 6H2K    1       JRNL                                     
   1   23-JAN-19 6H2K    0                                                

>  <JRNL>  (1) 
      AUTH   R.TASSONI,A.BLOK,N.S.PANNU,M.UBBINK                          
      TITL   NEW CONFORMATIONS OF ACYLATION ADDUCTS OF INHIBITORS OF      
      TITL 2 BETA-LACTAMASE FROM MYCOBACTERIUM TUBERCULOSIS.              
      REF    BIOCHEMISTRY                  V.  58   997 2019              
      REFN                   ISSN 1520-4995                               
      PMID   30632739                                                     
      DOI    10.1021/ACS.BIOCHEM.8B01085                                  

>  <REMARK>  (1) 
   2                                                                      
   2 RESOLUTION.    1.90 ANGSTROMS.                                       
   3                                                                      
   3 REFINEMENT.                                                          
   3   PROGRAM     : REFMAC 5.8.0189                                      
   3   AUTHORS     : MURSHUDOV,SKUBAK,LEBEDEV,PANNU,STEINER,              
   3               : NICHOLLS,WINN,LONG,VAGIN                             
   3                                                                      
   3    REFINEMENT TARGET : NULL                                          
   3                                                                      
   3  DATA USED IN REFINEMENT.                                            
   3   RESOLUTION RANGE HIGH (ANGSTROMS) : 1.90                           
   3   RESOLUTION RANGE LOW  (ANGSTROMS) : 40.50                          
   3   DATA CUTOFF            (SIGMA(F)) : NULL                           
   3   COMPLETENESS FOR RANGE        (%) : 85.9                           
   3   NUMBER OF REFLECTIONS             : 30816                          
   3                                                                      
   3  FIT TO DATA USED IN REFINEMENT.                                     
   3   CROSS-VALIDATION METHOD          : THROUGHOUT                      
   3   FREE R VALUE TEST SET SELECTION  : RANDOM                          
   3   R VALUE     (WORKING + TEST SET) : 0.184                           
   3   R VALUE            (WORKING SET) : 0.182                           
   3   FREE R VALUE                     : 0.227                           
   3   FREE R VALUE TEST SET SIZE   (%) : 5.000                           
   3   FREE R VALUE TEST SET COUNT      : 1627                            
   3                                                                      
   3  FIT IN THE HIGHEST RESOLUTION BIN.                                  
   3   TOTAL NUMBER OF BINS USED           : 20                           
   3   BIN RESOLUTION RANGE HIGH       (A) : 1.90                         
   3   BIN RESOLUTION RANGE LOW        (A) : 1.95                         
   3   REFLECTION IN BIN     (WORKING SET) : 2273                         
   3   BIN COMPLETENESS (WORKING+TEST) (%) : 87.72                        
   3   BIN R VALUE           (WORKING SET) : 0.2230                       
   3   BIN FREE R VALUE SET COUNT          : 127                          
   3   BIN FREE R VALUE                    : 0.3200                       
   3                                                                      
   3  NUMBER OF NON-HYDROGEN ATOMS USED IN REFINEMENT.                    
   3   PROTEIN ATOMS            : 4013                                    
   3   NUCLEIC ACID ATOMS       : 0                                       
   3   HETEROGEN ATOMS          : 110                                     
   3   SOLVENT ATOMS            : 347                                     
   3                                                                      
   3  B VALUES.                                                           
   3   FROM WILSON PLOT           (A**2) : NULL                           
   3   MEAN B VALUE      (OVERALL, A**2) : 12.06                          
   3   OVERALL ANISOTROPIC B VALUE.                                       
   3    B11 (A**2) : -0.14000                                             
   3    B22 (A**2) : 0.11000                                              
   3    B33 (A**2) : 0.00000                                              
   3    B12 (A**2) : 0.06000                                              
   3    B13 (A**2) : 0.00000                                              
   3    B23 (A**2) : 0.06000                                              
   3                                                                      
   3  ESTIMATED OVERALL COORDINATE ERROR.                                 
   3   ESU BASED ON R VALUE                            (A): 0.219         
   3   ESU BASED ON FREE R VALUE                       (A): 0.176         
   3   ESU BASED ON MAXIMUM LIKELIHOOD                 (A): 0.106         
   3   ESU FOR B VALUES BASED ON MAXIMUM LIKELIHOOD (A**2): 3.596         
   3                                                                      
   3 CORRELATION COEFFICIENTS.                                            
   3   CORRELATION COEFFICIENT FO-FC      : 0.932                         
   3   CORRELATION COEFFICIENT FO-FC FREE : 0.906                         
   3                                                                      
   3  RMS DEVIATIONS FROM IDEAL VALUES        COUNT    RMS    WEIGHT      
   3   BOND LENGTHS REFINED ATOMS        (A):  4211 ; 0.018 ; 0.019       
   3   BOND LENGTHS OTHERS               (A):  3943 ; 0.002 ; 0.020       
   3   BOND ANGLES REFINED ATOMS   (DEGREES):  5716 ; 1.877 ; 1.982       
   3   BOND ANGLES OTHERS          (DEGREES):  9076 ; 1.053 ; 3.000       
   3   TORSION ANGLES, PERIOD 1    (DEGREES):   537 ; 6.776 ; 5.000       
   3   TORSION ANGLES, PERIOD 2    (DEGREES):   180 ;38.204 ;23.111       
   3   TORSION ANGLES, PERIOD 3    (DEGREES):   620 ;13.659 ;15.000       
   3   TORSION ANGLES, PERIOD 4    (DEGREES):    39 ;18.686 ;15.000       
   3   CHIRAL-CENTER RESTRAINTS       (A**3):   657 ; 0.108 ; 0.200       
   3   GENERAL PLANES REFINED ATOMS      (A):  4738 ; 0.009 ; 0.021       
   3   GENERAL PLANES OTHERS             (A):   865 ; 0.002 ; 0.020       
   3   NON-BONDED CONTACTS REFINED ATOMS (A):  NULL ;  NULL ;  NULL       
   3   NON-BONDED CONTACTS OTHERS        (A):  NULL ;  NULL ;  NULL       
   3   NON-BONDED TORSION REFINED ATOMS  (A):  NULL ;  NULL ;  NULL       
   3   NON-BONDED TORSION OTHERS         (A):  NULL ;  NULL ;  NULL       
   3   H-BOND (X...Y) REFINED ATOMS      (A):  NULL ;  NULL ;  NULL       
   3   H-BOND (X...Y) OTHERS             (A):  NULL ;  NULL ;  NULL       
   3   POTENTIAL METAL-ION REFINED ATOMS (A):  NULL ;  NULL ;  NULL       
   3   POTENTIAL METAL-ION OTHERS        (A):  NULL ;  NULL ;  NULL       
   3   SYMMETRY VDW REFINED ATOMS        (A):  NULL ;  NULL ;  NULL       
   3   SYMMETRY VDW OTHERS               (A):  NULL ;  NULL ;  NULL       
   3   SYMMETRY H-BOND REFINED ATOMS     (A):  NULL ;  NULL ;  NULL       
   3   SYMMETRY H-BOND OTHERS            (A):  NULL ;  NULL ;  NULL       
   3   SYMMETRY METAL-ION REFINED ATOMS  (A):  NULL ;  NULL ;  NULL       
   3   SYMMETRY METAL-ION OTHERS         (A):  NULL ;  NULL ;  NULL       
   3                                                                      
   3  ISOTROPIC THERMAL FACTOR RESTRAINTS.     COUNT   RMS    WEIGHT      
   3   MAIN-CHAIN BOND REFINED ATOMS  (A**2):  2147 ; 1.194 ; 1.079       
   3   MAIN-CHAIN BOND OTHER ATOMS    (A**2):  2141 ; 1.157 ; 1.075       
   3   MAIN-CHAIN ANGLE REFINED ATOMS (A**2):  2675 ; 1.855 ; 1.604       
   3   MAIN-CHAIN ANGLE OTHER ATOMS   (A**2):  2676 ; 1.855 ; 1.605       
   3   SIDE-CHAIN BOND REFINED ATOMS  (A**2):  2064 ; 1.565 ; 1.291       
   3   SIDE-CHAIN BOND OTHER ATOMS    (A**2):  2065 ; 1.565 ; 1.292       
   3   SIDE-CHAIN ANGLE REFINED ATOMS (A**2):  NULL ;  NULL ;  NULL       
   3   SIDE-CHAIN ANGLE OTHER ATOMS   (A**2):  3040 ; 2.428 ; 1.856       
   3   LONG RANGE B REFINED ATOMS     (A**2):  4731 ; 4.247 ;13.806       
   3   LONG RANGE B OTHER ATOMS       (A**2):  4732 ; 4.247 ;13.809       
   3                                                                      
   3 ANISOTROPIC THERMAL FACTOR RESTRAINTS.    COUNT   RMS   WEIGHT       
   3   RIGID-BOND RESTRAINTS          (A**2):  NULL ;  NULL ;  NULL       
   3   SPHERICITY; FREE ATOMS         (A**2):  NULL ;  NULL ;  NULL       
   3   SPHERICITY; BONDED ATOMS       (A**2):  NULL ;  NULL ;  NULL       
   3                                                                      
   3  NCS RESTRAINTS STATISTICS                                           
   3   NCS TYPE: LOCAL                                                    
   3   NUMBER OF DIFFERENT NCS PAIRS  : 1                                 
   3  GROUP  CHAIN1    RANGE     CHAIN2     RANGE    COUNT RMS  WEIGHT    
   3    1     A    29    292       B    29    292   17204  0.07  0.05     
   3                                                                      
   3  TLS DETAILS                                                         
   3   NUMBER OF TLS GROUPS  : NULL                                       
   3                                                                      
   3  BULK SOLVENT MODELLING.                                             
   3   METHOD USED : NULL                                                 
   3   PARAMETERS FOR MASK CALCULATION                                    
   3   VDW PROBE RADIUS   : 1.20                                          
   3   ION PROBE RADIUS   : 0.80                                          
   3   SHRINKAGE RADIUS   : 0.80                                          
   3                                                                      
   3  OTHER REFINEMENT REMARKS: HYDROGENS HAVE BEEN ADDED IN THE RIDING   
   3  POSITIONS                                                           
   4                                                                      
   4 6H2K COMPLIES WITH FORMAT V. 3.30, 13-JUL-11                         
 100                                                                      
 100 THIS ENTRY HAS BEEN PROCESSED BY PDBE ON 13-JUL-18.                  
 100 THE DEPOSITION ID IS D_1200010944.                                   
 200                                                                      
 200 EXPERIMENTAL DETAILS                                                 
 200  EXPERIMENT TYPE                : X-RAY DIFFRACTION                  
 200  DATE OF DATA COLLECTION        : 23-JUL-16                          
 200  TEMPERATURE           (KELVIN) : 100                                
 200  PH                             : NULL                               
 200  NUMBER OF CRYSTALS USED        : 1                                  
 200                                                                      
 200  SYNCHROTRON              (Y/N) : Y                                  
 200  RADIATION SOURCE               : ESRF                               
 200  BEAMLINE                       : ID30B                              
 200  X-RAY GENERATOR MODEL          : NULL                               
 200  MONOCHROMATIC OR LAUE    (M/L) : M                                  
 200  WAVELENGTH OR RANGE        (A) : 0.9763                             
 200  MONOCHROMATOR                  : NULL                               
 200  OPTICS                         : NULL                               
 200                                                                      
 200  DETECTOR TYPE                  : PIXEL                              
 200  DETECTOR MANUFACTURER          : DECTRIS PILATUS 6M-F               
 200  INTENSITY-INTEGRATION SOFTWARE : XDS                                
 200  DATA SCALING SOFTWARE          : AIMLESS                            
 200                                                                      
 200  NUMBER OF UNIQUE REFLECTIONS   : 73926                              
 200  RESOLUTION RANGE HIGH      (A) : 1.900                              
 200  RESOLUTION RANGE LOW       (A) : 40.500                             
 200  REJECTION CRITERIA  (SIGMA(I)) : NULL                               
 200                                                                      
 200 OVERALL.                                                             
 200  COMPLETENESS FOR RANGE     (%) : 85.9                               
 200  DATA REDUNDANCY                : 1.900                              
 200  R MERGE                    (I) : NULL                               
 200  R SYM                      (I) : NULL                               
 200  <I/SIGMA(I)> FOR THE DATA SET  : 6.8200                             
 200                                                                      
 200 IN THE HIGHEST RESOLUTION SHELL.                                     
 200  HIGHEST RESOLUTION SHELL, RANGE HIGH (A) : 1.90                     
 200  HIGHEST RESOLUTION SHELL, RANGE LOW  (A) : 1.94                     
 200  COMPLETENESS FOR SHELL     (%) : NULL                               
 200  DATA REDUNDANCY IN SHELL       : NULL                               
 200  R MERGE FOR SHELL          (I) : NULL                               
 200  R SYM FOR SHELL            (I) : NULL                               
 200  <I/SIGMA(I)> FOR SHELL         : NULL                               
 200                                                                      
 200 DIFFRACTION PROTOCOL: SINGLE WAVELENGTH                              
 200 METHOD USED TO DETERMINE THE STRUCTURE: MOLECULAR REPLACEMENT        
 200 SOFTWARE USED: MOLREP                                                
 200 STARTING MODEL: 2GDN                                                 
 200                                                                      
 200 REMARK: NULL                                                         
 280                                                                      
 280 CRYSTAL                                                              
 280 SOLVENT CONTENT, VS   (%): 41.39                                     
 280 MATTHEWS COEFFICIENT, VM (ANGSTROMS**3/DA): 2.10                     
 280                                                                      
 280 CRYSTALLIZATION CONDITIONS: 0.1 M SODIUM ACETATE BUFFER, PH 5.0      
 280  25% W/V PEG1500, VAPOR DIFFUSION, SITTING DROP, TEMPERATURE         
 280  293.15K                                                             
 290                                                                      
 290 CRYSTALLOGRAPHIC SYMMETRY                                            
 290 SYMMETRY OPERATORS FOR SPACE GROUP: P 1                              
 290                                                                      
 290      SYMOP   SYMMETRY                                                
 290     NNNMMM   OPERATOR                                                
 290       1555   X,Y,Z                                                   
 290                                                                      
 290     WHERE NNN -> OPERATOR NUMBER                                     
 290           MMM -> TRANSLATION VECTOR                                  
 290                                                                      
 290 CRYSTALLOGRAPHIC SYMMETRY TRANSFORMATIONS                            
 290 THE FOLLOWING TRANSFORMATIONS OPERATE ON THE ATOM/HETATM             
 290 RECORDS IN THIS ENTRY TO PRODUCE CRYSTALLOGRAPHICALLY                
 290 RELATED MOLECULES.                                                   
 290   SMTRY1   1  1.000000  0.000000  0.000000        0.00000            
 290   SMTRY2   1  0.000000  1.000000  0.000000        0.00000            
 290   SMTRY3   1  0.000000  0.000000  1.000000        0.00000            
 290                                                                      
 290 REMARK: NULL                                                         
 300                                                                      
 300 BIOMOLECULE: 1, 2                                                    
 300 SEE REMARK 350 FOR THE AUTHOR PROVIDED AND/OR PROGRAM                
 300 GENERATED ASSEMBLY INFORMATION FOR THE STRUCTURE IN                  
 300 THIS ENTRY. THE REMARK MAY ALSO PROVIDE INFORMATION ON               
 300 BURIED SURFACE AREA.                                                 
 350                                                                      
 350 COORDINATES FOR A COMPLETE MULTIMER REPRESENTING THE KNOWN           
 350 BIOLOGICALLY SIGNIFICANT OLIGOMERIZATION STATE OF THE                
 350 MOLECULE CAN BE GENERATED BY APPLYING BIOMT TRANSFORMATIONS          
 350 GIVEN BELOW.  BOTH NON-CRYSTALLOGRAPHIC AND                          
 350 CRYSTALLOGRAPHIC OPERATIONS ARE GIVEN.                               
 350                                                                      
 350 BIOMOLECULE: 1                                                       
 350 AUTHOR DETERMINED BIOLOGICAL UNIT: MONOMERIC                         
 350 APPLY THE FOLLOWING TO CHAINS: A                                     
 350   BIOMT1   1  1.000000  0.000000  0.000000        0.00000            
 350   BIOMT2   1  0.000000  1.000000  0.000000        0.00000            
 350   BIOMT3   1  0.000000  0.000000  1.000000        0.00000            
 350                                                                      
 350 BIOMOLECULE: 2                                                       
 350 AUTHOR DETERMINED BIOLOGICAL UNIT: MONOMERIC                         
 350 APPLY THE FOLLOWING TO CHAINS: B                                     
 350   BIOMT1   1  1.000000  0.000000  0.000000        0.00000            
 350   BIOMT2   1  0.000000  1.000000  0.000000        0.00000            
 350   BIOMT3   1  0.000000  0.000000  1.000000        0.00000            
 465                                                                      
 465 MISSING RESIDUES                                                     
 465 THE FOLLOWING RESIDUES WERE NOT LOCATED IN THE                       
 465 EXPERIMENT. (M=MODEL NUMBER; RES=RESIDUE NAME; C=CHAIN               
 465 IDENTIFIER; SSSEQ=SEQUENCE NUMBER; I=INSERTION CODE.)                
 465                                                                      
 465   M RES C SSSEQI                                                     
 465     MET A    28                                                      
 465     HIS A   298                                                      
 465     HIS A   299                                                      
 465     HIS A   300                                                      
 465     HIS A   301                                                      
 465     MET B    28                                                      
 465     LEU B   294                                                      
 465     GLU B   295                                                      
 465     HIS B   296                                                      
 465     HIS B   297                                                      
 465     HIS B   298                                                      
 465     HIS B   299                                                      
 465     HIS B   300                                                      
 465     HIS B   301                                                      
 500                                                                      
 500 GEOMETRY AND STEREOCHEMISTRY                                         
 500 SUBTOPIC: CLOSE CONTACTS IN SAME ASYMMETRIC UNIT                     
 500                                                                      
 500 THE FOLLOWING ATOMS ARE IN CLOSE CONTACT.                            
 500                                                                      
 500  ATM1  RES C  SSEQI   ATM2  RES C  SSEQI           DISTANCE          
 500   OD2  ASP A   230     O    HOH A   601              2.11            
 500   OG   SER A    70     O8   TSL A   501              2.15            
 500   O    HOH B   703     O    HOH B   753              2.17            
 500                                                                      
 500 REMARK: NULL                                                         
 500                                                                      
 500 GEOMETRY AND STEREOCHEMISTRY                                         
 500 SUBTOPIC: COVALENT BOND LENGTHS                                      
 500                                                                      
 500 THE STEREOCHEMICAL PARAMETERS OF THE FOLLOWING RESIDUES              
 500 HAVE VALUES WHICH DEVIATE FROM EXPECTED VALUES BY MORE               
 500 THAN 6*RMSD (M=MODEL NUMBER; RES=RESIDUE NAME; C=CHAIN               
 500 IDENTIFIER; SSEQ=SEQUENCE NUMBER; I=INSERTION CODE).                 
 500                                                                      
 500 STANDARD TABLE:                                                      
 500 FORMAT: (10X,I3,1X,2(A3,1X,A1,I4,A1,1X,A4,3X),1X,F6.3)               
 500                                                                      
 500 EXPECTED VALUES PROTEIN: ENGH AND HUBER, 1999                        
 500 EXPECTED VALUES NUCLEIC ACID: CLOWNEY ET AL 1996                     
 500                                                                      
 500  M RES CSSEQI ATM1   RES CSSEQI ATM2   DEVIATION                     
 500    GLU A 295   CD    GLU A 295   OE1    -0.104                       
 500    GLU A 295   CD    GLU A 295   OE2    -0.075                       
 500                                                                      
 500 REMARK: NULL                                                         
 500                                                                      
 500 GEOMETRY AND STEREOCHEMISTRY                                         
 500 SUBTOPIC: COVALENT BOND ANGLES                                       
 500                                                                      
 500 THE STEREOCHEMICAL PARAMETERS OF THE FOLLOWING RESIDUES              
 500 HAVE VALUES WHICH DEVIATE FROM EXPECTED VALUES BY MORE               
 500 THAN 6*RMSD (M=MODEL NUMBER; RES=RESIDUE NAME; C=CHAIN               
 500 IDENTIFIER; SSEQ=SEQUENCE NUMBER; I=INSERTION CODE).                 
 500                                                                      
 500 STANDARD TABLE:                                                      
 500 FORMAT: (10X,I3,1X,A3,1X,A1,I4,A1,3(1X,A4,2X),12X,F5.1)              
 500                                                                      
 500 EXPECTED VALUES PROTEIN: ENGH AND HUBER, 1999                        
 500 EXPECTED VALUES NUCLEIC ACID: CLOWNEY ET AL 1996                     
 500                                                                      
 500  M RES CSSEQI ATM1   ATM2   ATM3                                     
 500    ARG A  39   NE  -  CZ  -  NH2 ANGL. DEV. =   3.0 DEGREES          
 500    ARG A 126   NE  -  CZ  -  NH1 ANGL. DEV. =   3.7 DEGREES          
 500    ARG A 126   NE  -  CZ  -  NH2 ANGL. DEV. =  -3.4 DEGREES          
 500    ARG A 155   NE  -  CZ  -  NH1 ANGL. DEV. =   3.5 DEGREES          
 500    ARG A 155   NE  -  CZ  -  NH2 ANGL. DEV. =  -3.2 DEGREES          
 500    ARG A 173   NE  -  CZ  -  NH2 ANGL. DEV. =  -3.1 DEGREES          
 500    ARG A 244   NE  -  CZ  -  NH1 ANGL. DEV. =   4.8 DEGREES          
 500    ARG A 267   NE  -  CZ  -  NH1 ANGL. DEV. =  -5.4 DEGREES          
 500    ARG A 267   NE  -  CZ  -  NH2 ANGL. DEV. =   3.4 DEGREES          
 500    ARG B 126   NE  -  CZ  -  NH2 ANGL. DEV. =  -3.8 DEGREES          
 500    ARG B 155   NE  -  CZ  -  NH1 ANGL. DEV. =   3.7 DEGREES          
 500    ARG B 155   NE  -  CZ  -  NH2 ANGL. DEV. =  -3.2 DEGREES          
 500    ARG B 222   NE  -  CZ  -  NH2 ANGL. DEV. =   3.0 DEGREES          
 500    ARG B 244   NE  -  CZ  -  NH1 ANGL. DEV. =   4.1 DEGREES          
 500    ARG B 267   NE  -  CZ  -  NH2 ANGL. DEV. =   3.4 DEGREES          
 500                                                                      
 500 REMARK: NULL                                                         
 500                                                                      
 500 GEOMETRY AND STEREOCHEMISTRY                                         
 500 SUBTOPIC: TORSION ANGLES                                             
 500                                                                      
 500 TORSION ANGLES OUTSIDE THE EXPECTED RAMACHANDRAN REGIONS:            
 500 (M=MODEL NUMBER; RES=RESIDUE NAME; C=CHAIN IDENTIFIER;               
 500 SSEQ=SEQUENCE NUMBER; I=INSERTION CODE).                             
 500                                                                      
 500 STANDARD TABLE:                                                      
 500 FORMAT:(10X,I3,1X,A3,1X,A1,I4,A1,4X,F7.2,3X,F7.2)                    
 500                                                                      
 500 EXPECTED VALUES: GJ KLEYWEGT AND TA JONES (1996). PHI/PSI-           
 500 CHOLOGY: RAMACHANDRAN REVISITED. STRUCTURE 4, 1395 - 1400            
 500                                                                      
 500  M RES CSSEQI        PSI       PHI                                   
 500    CYS A  69     -139.78     47.12                                   
 500    ARG A 222     -120.55   -113.25                                   
 500    CYS B  69     -141.81     45.54                                   
 500    THR B  94       68.37   -105.04                                   
 500    ARG B 222     -120.48   -112.65                                   
 500                                                                      
 500 REMARK: NULL                                                         
 800                                                                      
 800 SITE                                                                 
 800 SITE_IDENTIFIER: AC1                                                 
 800 EVIDENCE_CODE: SOFTWARE                                              
 800 SITE_DESCRIPTION: binding site for residue TSL A 501                 
 800                                                                      
 800 SITE_IDENTIFIER: AC2                                                 
 800 EVIDENCE_CODE: SOFTWARE                                              
 800 SITE_DESCRIPTION: binding site for residue PEG A 502                 
 800                                                                      
 800 SITE_IDENTIFIER: AC3                                                 
 800 EVIDENCE_CODE: SOFTWARE                                              
 800 SITE_DESCRIPTION: binding site for residue PEG A 503                 
 800                                                                      
 800 SITE_IDENTIFIER: AC4                                                 
 800 EVIDENCE_CODE: SOFTWARE                                              
 800 SITE_DESCRIPTION: binding site for residue PEG A 504                 
 800                                                                      
 800 SITE_IDENTIFIER: AC5                                                 
 800 EVIDENCE_CODE: SOFTWARE                                              
 800 SITE_DESCRIPTION: binding site for residue PEG A 505                 
 800                                                                      
 800 SITE_IDENTIFIER: AC6                                                 
 800 EVIDENCE_CODE: SOFTWARE                                              
 800 SITE_DESCRIPTION: binding site for residue PEG A 506                 
 800                                                                      
 800 SITE_IDENTIFIER: AC7                                                 
 800 EVIDENCE_CODE: SOFTWARE                                              
 800 SITE_DESCRIPTION: binding site for residue GOL A 507                 
 800                                                                      
 800 SITE_IDENTIFIER: AC8                                                 
 800 EVIDENCE_CODE: SOFTWARE                                              
 800 SITE_DESCRIPTION: binding site for residue GOL A 508                 
 800                                                                      
 800 SITE_IDENTIFIER: AC9                                                 
 800 EVIDENCE_CODE: SOFTWARE                                              
 800 SITE_DESCRIPTION: binding site for residue ACT A 509                 
 800                                                                      
 800 SITE_IDENTIFIER: AD1                                                 
 800 EVIDENCE_CODE: SOFTWARE                                              
 800 SITE_DESCRIPTION: binding site for residue ACT A 510                 
 800                                                                      
 800 SITE_IDENTIFIER: AD2                                                 
 800 EVIDENCE_CODE: SOFTWARE                                              
 800 SITE_DESCRIPTION: binding site for residue ACT A 511                 
 800                                                                      
 800 SITE_IDENTIFIER: AD3                                                 
 800 EVIDENCE_CODE: SOFTWARE                                              
 800 SITE_DESCRIPTION: binding site for residue PEG B 502                 
 800                                                                      
 800 SITE_IDENTIFIER: AD4                                                 
 800 EVIDENCE_CODE: SOFTWARE                                              
 800 SITE_DESCRIPTION: binding site for residue GOL B 503                 
 800                                                                      
 800 SITE_IDENTIFIER: AD5                                                 
 800 EVIDENCE_CODE: SOFTWARE                                              
 800 SITE_DESCRIPTION: binding site for residue ACT B 504                 
 800                                                                      
 800 SITE_IDENTIFIER: AD6                                                 
 800 EVIDENCE_CODE: SOFTWARE                                              
 800 SITE_DESCRIPTION: binding site for residue ACT B 505                 
 800                                                                      
 800 SITE_IDENTIFIER: AD7                                                 
 800 EVIDENCE_CODE: SOFTWARE                                              
 800 SITE_DESCRIPTION: binding site for Di-peptide TSL B 501 and SER B    
 800  70                                                                  

>  <DBREF1>  (1) 
 6H2K A   29   293  UNP                  A0A0T9EA39_MYCTX                 
 6H2K B   29   293  UNP                  A0A0T9EA39_MYCTX                 

>  <DBREF2>  (1) 
 6H2K A     A0A0T9EA39                          6         270             
 6H2K B     A0A0T9EA39                          6         270             

>  <SEQADV>  (1) 
 6H2K MET A   28  UNP  A0A0T9EA3           INITIATING METHIONINE          
 6H2K LEU A  294  UNP  A0A0T9EA3           EXPRESSION TAG                 
 6H2K GLU A  295  UNP  A0A0T9EA3           EXPRESSION TAG                 
 6H2K HIS A  296  UNP  A0A0T9EA3           EXPRESSION TAG                 
 6H2K HIS A  297  UNP  A0A0T9EA3           EXPRESSION TAG                 
 6H2K HIS A  298  UNP  A0A0T9EA3           EXPRESSION TAG                 
 6H2K HIS A  299  UNP  A0A0T9EA3           EXPRESSION TAG                 
 6H2K HIS A  300  UNP  A0A0T9EA3           EXPRESSION TAG                 
 6H2K HIS A  301  UNP  A0A0T9EA3           EXPRESSION TAG                 
 6H2K MET B   28  UNP  A0A0T9EA3           INITIATING METHIONINE          
 6H2K LEU B  294  UNP  A0A0T9EA3           EXPRESSION TAG                 
 6H2K GLU B  295  UNP  A0A0T9EA3           EXPRESSION TAG                 
 6H2K HIS B  296  UNP  A0A0T9EA3           EXPRESSION TAG                 
 6H2K HIS B  297  UNP  A0A0T9EA3           EXPRESSION TAG                 
 6H2K HIS B  298  UNP  A0A0T9EA3           EXPRESSION TAG                 
 6H2K HIS B  299  UNP  A0A0T9EA3           EXPRESSION TAG                 
 6H2K HIS B  300  UNP  A0A0T9EA3           EXPRESSION TAG                 
 6H2K HIS B  301  UNP  A0A0T9EA3           EXPRESSION TAG                 

>  <SEQRES>  (1) 
   1 A  274  MET ASP LEU ALA ASP ARG PHE ALA GLU LEU GLU ARG ARG          
   2 A  274  TYR ASP ALA ARG LEU GLY VAL TYR VAL PRO ALA THR GLY          
   3 A  274  THR THR ALA ALA ILE GLU TYR ARG ALA ASP GLU ARG PHE          
   4 A  274  ALA PHE CYS SER THR PHE LYS ALA PRO LEU VAL ALA ALA          
   5 A  274  VAL LEU HIS GLN ASN PRO LEU THR HIS LEU ASP LYS LEU          
   6 A  274  ILE THR TYR THR SER ASP ASP ILE ARG SER ILE SER PRO          
   7 A  274  VAL ALA GLN GLN HIS VAL GLN THR GLY MET THR ILE GLY          
   8 A  274  GLN LEU CYS ASP ALA ALA ILE ARG TYR SER ASP GLY THR          
   9 A  274  ALA ALA ASN LEU LEU LEU ALA ASP LEU GLY GLY PRO GLY          
  10 A  274  GLY GLY THR ALA ALA PHE THR GLY TYR LEU ARG SER LEU          
  11 A  274  GLY ASP THR VAL SER ARG LEU ASP ALA GLU GLU PRO GLU          
  12 A  274  LEU ASN ARG ASP PRO PRO GLY ASP GLU ARG ASP THR THR          
  13 A  274  THR PRO HIS ALA ILE ALA LEU VAL LEU GLN GLN LEU VAL          
  14 A  274  LEU GLY ASN ALA LEU PRO PRO ASP LYS ARG ALA LEU LEU          
  15 A  274  THR ASP TRP MET ALA ARG ASN THR THR GLY ALA LYS ARG          
  16 A  274  ILE ARG ALA GLY PHE PRO ALA ASP TRP LYS VAL ILE ASP          
  17 A  274  LYS THR GLY THR GLY ASP TYR GLY ARG ALA ASN ASP ILE          
  18 A  274  ALA VAL VAL TRP SER PRO THR GLY VAL PRO TYR VAL VAL          
  19 A  274  ALA VAL MET SER ASP ARG ALA GLY GLY GLY TYR ASP ALA          
  20 A  274  GLU PRO ARG GLU ALA LEU LEU ALA GLU ALA ALA THR CYS          
  21 A  274  VAL ALA GLY VAL LEU ALA LEU GLU HIS HIS HIS HIS HIS          
  22 A  274  HIS                                                          
   1 B  274  MET ASP LEU ALA ASP ARG PHE ALA GLU LEU GLU ARG ARG          
   2 B  274  TYR ASP ALA ARG LEU GLY VAL TYR VAL PRO ALA THR GLY          
   3 B  274  THR THR ALA ALA ILE GLU TYR ARG ALA ASP GLU ARG PHE          
   4 B  274  ALA PHE CYS SER THR PHE LYS ALA PRO LEU VAL ALA ALA          
   5 B  274  VAL LEU HIS GLN ASN PRO LEU THR HIS LEU ASP LYS LEU          
   6 B  274  ILE THR TYR THR SER ASP ASP ILE ARG SER ILE SER PRO          
   7 B  274  VAL ALA GLN GLN HIS VAL GLN THR GLY MET THR ILE GLY          
   8 B  274  GLN LEU CYS ASP ALA ALA ILE ARG TYR SER ASP GLY THR          
   9 B  274  ALA ALA ASN LEU LEU LEU ALA ASP LEU GLY GLY PRO GLY          
  10 B  274  GLY GLY THR ALA ALA PHE THR GLY TYR LEU ARG SER LEU          
  11 B  274  GLY ASP THR VAL SER ARG LEU ASP ALA GLU GLU PRO GLU          
  12 B  274  LEU ASN ARG ASP PRO PRO GLY ASP GLU ARG ASP THR THR          
  13 B  274  THR PRO HIS ALA ILE ALA LEU VAL LEU GLN GLN LEU VAL          
  14 B  274  LEU GLY ASN ALA LEU PRO PRO ASP LYS ARG ALA LEU LEU          
  15 B  274  THR ASP TRP MET ALA ARG ASN THR THR GLY ALA LYS ARG          
  16 B  274  ILE ARG ALA GLY PHE PRO ALA ASP TRP LYS VAL ILE ASP          
  17 B  274  LYS THR GLY THR GLY ASP TYR GLY ARG ALA ASN ASP ILE          
  18 B  274  ALA VAL VAL TRP SER PRO THR GLY VAL PRO TYR VAL VAL          
  19 B  274  ALA VAL MET SER ASP ARG ALA GLY GLY GLY TYR ASP ALA          
  20 B  274  GLU PRO ARG GLU ALA LEU LEU ALA GLU ALA ALA THR CYS          
  21 B  274  VAL ALA GLY VAL LEU ALA LEU GLU HIS HIS HIS HIS HIS          
  22 B  274  HIS                                                          

>  <HET>  (1) 
 TSL  A 501      15                                                       
 PEG  A 502       7                                                       
 PEG  A 503       7                                                       
 PEG  A 504       7                                                       
 PEG  A 505       7                                                       
 PEG  A 506       7                                                       
 GOL  A 507       6                                                       
 GOL  A 508       6                                                       
 ACT  A 509       4                                                       
 ACT  A 510       4                                                       
 ACT  A 511       4                                                       
 TSL  B 501      15                                                       
 PEG  B 502       7                                                       
 GOL  B 503       6                                                       
 ACT  B 504       4                                                       
 ACT  B 505       4                                                       

>  <HETNAM>  (1) 
     TSL TRANS-ENAMINE INTERMEDIATE OF SULBACTAM                          
     PEG DI(HYDROXYETHYL)ETHER                                            
     GOL GLYCEROL                                                         
     ACT ACETATE ION                                                      

>  <HETSYN>  (1) 
     GOL GLYCERIN; PROPANE-1,2,3-TRIOL                                    

>  <FORMUL>  (1) 
   3  TSL    2(C8 H13 N O5 S)                                             
   4  PEG    6(C4 H10 O3)                                                 
   9  GOL    3(C3 H8 O3)                                                  
  11  ACT    5(C2 H3 O2 1-)                                               
  19  HOH   *347(H2 O)                                                    

>  <HELIX>  (1) 
   1 AA1 ASP A   29  ASP A   42  1                                  14    
   2 AA2 CYS A   69  THR A   71  5                                   3    
   3 AA3 PHE A   72  ASN A   84  1                                  13    
   4 AA4 PRO A   85  ASP A   90  5                                   6    
   5 AA5 THR A   96  ILE A  100  5                                   5    
   6 AA6 SER A  104  HIS A  110  1                                   7    
   7 AA7 ILE A  117  TYR A  127  1                                  11    
   8 AA8 ASP A  129  GLY A  142  1                                  14    
   9 AA9 GLY A  145  LEU A  157  1                                  13    
  10 AB1 PRO A  169  ARG A  173  5                                   5    
  11 AB2 THR A  184  GLY A  198  1                                  15    
  12 AB3 PRO A  202  ARG A  215  1                                  14    
  13 AB4 ARG A  222  PHE A  227  5                                   6    
  14 AB5 ARG A  267  ALA A  274  5                                   8    
  15 AB6 ARG A  277  LEU A  294  1                                  18    
  16 AB7 LEU B   30  ASP B   42  1                                  13    
  17 AB8 CYS B   69  THR B   71  5                                   3    
  18 AB9 PHE B   72  ASN B   84  1                                  13    
  19 AC1 PRO B   85  ASP B   90  5                                   6    
  20 AC2 THR B   96  ILE B  100  5                                   5    
  21 AC3 VAL B  106  VAL B  111  5                                   6    
  22 AC4 ILE B  117  TYR B  127  1                                  11    
  23 AC5 ASP B  129  GLY B  142  1                                  14    
  24 AC6 GLY B  145  LEU B  157  1                                  13    
  25 AC7 PRO B  169  ARG B  173  5                                   5    
  26 AC8 THR B  184  GLY B  198  1                                  15    
  27 AC9 PRO B  202  ARG B  215  1                                  14    
  28 AD1 ARG B  222  PHE B  227  5                                   6    
  29 AD2 ARG B  267  ALA B  274  5                                   8    
  30 AD3 ARG B  277  ALA B  293  1                                  17    

>  <SHEET>  (1) 
   1 AA1 5 ILE A  58  TYR A  60  0                                        
   2 AA1 5 ARG A  44  VAL A  49 -1  N  VAL A  47   O  TYR A  60           
   3 AA1 5 PRO A 258  ASP A 266 -1  O  MET A 264   N  GLY A  46           
   4 AA1 5 ARG A 244  TRP A 252 -1  N  VAL A 251   O  TYR A 259           
   5 AA1 5 LYS A 232  GLY A 240 -1  N  GLY A 238   O  ASN A 246           
   1 AA2 2 PHE A  66  ALA A  67  0                                        
   2 AA2 2 THR A 182  THR A 183 -1  O  THR A 183   N  PHE A  66           
   1 AA3 2 LEU A  92  ILE A  93  0                                        
   2 AA3 2 MET A 115  THR A 116 -1  O  MET A 115   N  ILE A  93           
   1 AA4 5 ILE B  58  TYR B  60  0                                        
   2 AA4 5 ARG B  44  VAL B  49 -1  N  VAL B  47   O  TYR B  60           
   3 AA4 5 PRO B 258  ASP B 266 -1  O  MET B 264   N  GLY B  46           
   4 AA4 5 ARG B 244  TRP B 252 -1  N  VAL B 251   O  TYR B 259           
   5 AA4 5 LYS B 232  GLY B 240 -1  N  GLY B 238   O  ASN B 246           
   1 AA5 2 PHE B  66  ALA B  67  0                                        
   2 AA5 2 THR B 182  THR B 183 -1  O  THR B 183   N  PHE B  66           
   1 AA6 2 LEU B  92  ILE B  93  0                                        
   2 AA6 2 MET B 115  THR B 116 -1  O  MET B 115   N  ILE B  93           

>  <LINK>  (1) 
       OG  SER A  70                 C7  TSL A 501     1555   1555  1.34  
       OG  SER B  70                 C7  TSL B 501     1555   1555  1.36  

>  <CISPEP>  (1) 
   1 GLU A  168    PRO A  169          0         2.90                     
   2 GLU B  168    PRO B  169          0         4.72                     

>  <SITE>  (1) 
   1 AC1 10 CYS A  69  SER A  70  ILE A 103  SER A 128                    
   2 AC1 10 PRO A 169  ASN A 172  ARG A 173  GLY A 238                    
   3 AC1 10 THR A 239  ACT A 509                                          
   1 AC2  8 GLY A 177  ASP A 178  GLU A 179  HOH A 609                    
   2 AC2  8 HOH A 695  VAL B 196  LEU B 197  ARG B 206                    
   1 AC3  2 ASP A 273  PEG A 505                                          
   1 AC4  3 ARG A 173  ARG A 180  HOH B 658                               
   1 AC5  2 PEG A 503  ALA B 293                                          
   1 AC6  6 ASP A 122  TRP A 212  ILE B 100  ARG B 101                    
   2 AC6  6 SER B 102  HOH B 653                                          
   1 AC7  6 MET A 213  ALA A 214  ARG A 224  VAL A 233                    
   2 AC7  6 ASP A 235  HOH A 675                                          
   1 AC8  6 THR A 217  THR A 218  GLY A 219  ALA A 220                    
   2 AC8  6 LYS A 221  GLU A 278                                          
   1 AC9  7 SER A  70  SER A 128  LYS A 236  THR A 237                    
   2 AC9  7 GLY A 238  THR A 239  TSL A 501                               
   1 AD1  2 LEU A  86  ASP A  90                                          
   1 AD2  2 ARG A 101  HOH A 610                                          
   1 AD3  6 THR A 210  THR B  96  SER B  97  VAL B 111                    
   2 AD3  6 GLN B 112  HOH B 652                                          
   1 AD4  5 THR B  52  THR B  55  ALA B  56  HOH B 606                    
   2 AD4  5 HOH B 608                                                     
   1 AD5  6 SER B 128  LYS B 236  THR B 237  GLY B 238                    
   2 AD5  6 THR B 239  TSL B 501                                          
   1 AD6  4 ARG B  33  THR B 286  CYS B 287  GLY B 290                    
   1 AD7 17 PHE B  68  CYS B  69  THR B  71  PHE B  72                    
   2 AD7 17 LYS B  73  ILE B 103  SER B 128  GLU B 168                    
   3 AD7 17 PRO B 169  ASN B 172  ARG B 173  LYS B 236                    
   4 AD7 17 THR B 237  GLY B 238  THR B 239  ACT B 504                    
   5 AD7 17 HOH B 622                                                     

>  <ORIGX1>  (1) 
      1.000000  0.000000  0.000000        0.00000                         

>  <ORIGX2>  (1) 
      0.000000  1.000000  0.000000        0.00000                         

>  <ORIGX3>  (1) 
      0.000000  0.000000  1.000000        0.00000                         

>  <SCALE1>  (1) 
      0.025183  0.000354  0.000073        0.00000                         

>  <SCALE2>  (1) 
      0.000000  0.023840  0.006433        0.00000                         

>  <SCALE3>  (1) 
      0.000000  0.000000  0.013464        0.00000                         

>  <MASTER>  (1) 
      407    0   16   30   18    0   30    6 4470    2  112   44          

$$$$
