start_structures/Ligand_Substrate/Ligand_Complex_Stripped/WY2_1Q2P.pdb
     RDKit          3D

 29 32  0  0  1  0  0  0  0  0999 V2000
   48.7968   51.8771   46.3360 N   0  0  0  0  0  0  0  0  0  0  0  0
   47.4473   51.3815   46.5443 C   0  0  2  0  0  0  0  0  0  0  0  0
   47.4044   49.8864   46.4403 C   0  0  0  0  0  0  0  0  0  0  0  0
   46.4741   49.2679   46.9365 O   0  0  0  0  0  0  0  0  0  0  0  0
   46.5146   52.0024   45.5112 C   0  0  0  0  0  0  0  0  0  0  0  0
   46.1627   53.3346   45.8717 O   0  0  0  0  0  0  0  0  0  0  0  0
   42.7155   56.4896   47.8826 S   0  0  0  0  0  0  0  0  0  0  0  0
   43.7180   57.8920   48.3449 C   0  0  0  0  0  0  0  0  0  0  0  0
   44.8768   58.2146   47.7697 C   0  0  0  0  0  0  0  0  0  0  0  0
   45.5043   57.4144   46.7545 N   0  0  0  0  0  0  0  0  0  0  0  0
   45.5779   55.9894   46.5597 C   0  0  0  0  0  0  0  0  0  0  0  0
   44.9646   55.0197   47.2581 C   0  0  0  0  0  0  0  0  0  0  0  0
   45.2532   53.6195   46.8967 C   0  0  0  0  0  0  0  0  0  0  0  0
   44.6794   52.6795   47.5134 O   0  0  0  0  0  0  0  0  0  0  0  0
   43.9754   55.2658   48.3584 C   0  0  1  0  0  0  0  0  0  0  0  0
   44.5826   55.4515   49.7189 C   0  0  0  0  0  0  0  0  0  0  0  0
   43.9415   55.0989   50.9128 C   0  0  0  0  0  0  0  0  0  0  0  0
   44.8122   55.4667   51.8576 N   0  0  0  0  0  0  0  0  0  0  0  0
   45.8829   55.9695   51.2722 C   0  0  0  0  0  0  0  0  0  0  0  0
   45.8210   55.9849   49.9332 N   0  0  0  0  0  0  0  0  0  0  0  0
   47.1686   56.2461   52.3424 S   0  0  0  0  0  0  0  0  0  0  0  0
   46.1714   55.7324   53.6353 C   0  0  0  0  0  0  0  0  0  0  0  0
   44.9536   55.3371   53.1889 C   0  0  0  0  0  0  0  0  0  0  0  0
   44.2246   54.4867   54.1431 C   0  0  0  0  0  0  0  0  0  0  0  0
   45.1687   54.4892   55.3675 C   0  0  0  0  0  0  0  0  0  0  0  0
   46.4784   55.2162   54.9792 C   0  0  0  0  0  0  0  0  0  0  0  0
   45.5441   59.4642   48.1704 C   0  0  0  0  0  0  0  0  0  0  0  0
   45.0428   60.2119   49.0530 O   0  0  0  0  0  0  0  0  0  0  0  0
   46.7452   59.8280   47.5743 O   0  0  0  0  0  0  0  0  0  0  0  0
  2  3  1  0
  2  1  1  6
  4  3  2  0
  5  2  1  0
  6 13  1  0
  6  5  1  0
  7  8  1  0
  7 15  1  0
  8  9  2  0
  9 10  1  0
  9 27  1  0
 10 11  1  0
 11 12  2  0
 12 13  1  0
 12 15  1  0
 13 14  2  0
 15 16  1  6
 16 17  2  0
 16 20  1  0
 17 18  1  0
 18 19  1  0
 18 23  1  0
 19 20  2  0
 19 21  1  0
 21 22  1  0
 22 23  2  0
 22 26  1  0
 23 24  1  0
 24 25  1  0
 25 26  1  0
 27 28  2  0
 27 29  1  0
M  END
>  <HEADER>  (1) 
    HYDROLASE                               25-JUL-03   1Q2P              

>  <TITLE>  (1) 
    SHV-1 CLASS A BETA-LACTAMASE COMPLEXED WITH PENEM WAY185229           

>  <COMPND>  (1) 
    MOL_ID: 1;                                                            
   2 MOLECULE: BETA-LACTAMASE SHV-1;                                      
   3 CHAIN: A;                                                            
   4 FRAGMENT: PENICILLINASE;                                             
   5 SYNONYM: PIT-2; EXTENDED-SPECTRUM BETA-LACTAMASE SHV-1;              
   6 EC: 3.5.2.6;                                                         
   7 ENGINEERED: YES                                                      

>  <SOURCE>  (1) 
    MOL_ID: 1;                                                            
   2 ORGANISM_SCIENTIFIC: KLEBSIELLA PNEUMONIAE;                          
   3 ORGANISM_TAXID: 573;                                                 
   4 GENE: BLA;                                                           
   5 EXPRESSION_SYSTEM: ESCHERICHIA COLI STR. K-12 SUBSTR. DH10B;         
   6 EXPRESSION_SYSTEM_TAXID: 316385;                                     
   7 EXPRESSION_SYSTEM_STRAIN: DH10B;                                     
   8 EXPRESSION_SYSTEM_VECTOR_TYPE: PLASMID;                              
   9 EXPRESSION_SYSTEM_PLASMID: PBCSK                                     

>  <KEYWDS>  (1) 
    HYDROLASE, INHIBITION, BETA-LACTAM ANTIBIOTICS, DRUG DESIGN           

>  <EXPDTA>  (1) 
    X-RAY DIFFRACTION                                                     

>  <AUTHOR>  (1) 
    M.NUKAGA,A.M.VENKATESAN,T.S.MANSOUR,A.HUJER,R.A.BONOMO,J.R.KNOX       

>  <REVDAT>  (1) 
   5   16-AUG-23 1Q2P    1       REMARK LINK                              
   4   11-OCT-17 1Q2P    1       REMARK                                   
   3   24-FEB-09 1Q2P    1       VERSN                                    
   2   15-FEB-05 1Q2P    1       JRNL   AUTHOR                            
   1   14-SEP-04 1Q2P    0                                                

>  <JRNL>  (1) 
      AUTH   A.M.VENKATESAN,Y.GU,O.DOS SANTOS,T.ABE,A.AGARWAL,Y.YANG,     
      AUTH 2 P.J.PETERSEN,W.J.WEISS,T.S.MANSOUR,M.NUKAGA,A.HUJER,         
      AUTH 3 R.A.BONOMO,J.R.KNOX                                          
      TITL   STRUCTURE-ACTIVITY RELATIONSHIP OF 6-METHYLIDENE PENEMS      
      TITL 2 BEARING TRICYCLIC HETEROCYCLES AS BROAD-SPECTRUM             
      TITL 3 BETA-LACTAMASE INHIBITORS: CRYSTALLOGRAPHIC STRUCTURES SHOW  
      TITL 4 UNEXPECTED BINDING OF 1,4-THIAZEPINE INTERMEDIATES           
      REF    J.MED.CHEM.                   V.  47  6556 2004              
      REFN                   ISSN 0022-2623                               
      PMID   15588091                                                     
      DOI    10.1021/JM049680X                                            

>  <REMARK>  (1) 
   2                                                                      
   2 RESOLUTION.    2.00 ANGSTROMS.                                       
   3                                                                      
   3 REFINEMENT.                                                          
   3   PROGRAM     : CNS 1.1                                              
   3   AUTHORS     : BRUNGER,ADAMS,CLORE,DELANO,GROS,GROSSE-              
   3               : KUNSTLEVE,JIANG,KUSZEWSKI,NILGES,PANNU,              
   3               : READ,RICE,SIMONSON,WARREN                            
   3                                                                      
   3  REFINEMENT TARGET : ENGH & HUBER                                    
   3                                                                      
   3  DATA USED IN REFINEMENT.                                            
   3   RESOLUTION RANGE HIGH (ANGSTROMS) : 2.00                           
   3   RESOLUTION RANGE LOW  (ANGSTROMS) : 27.72                          
   3   DATA CUTOFF            (SIGMA(F)) : 0.000                          
   3   DATA CUTOFF HIGH         (ABS(F)) : NULL                           
   3   DATA CUTOFF LOW          (ABS(F)) : NULL                           
   3   COMPLETENESS (WORKING+TEST)   (%) : 96.2                           
   3   NUMBER OF REFLECTIONS             : 15525                          
   3                                                                      
   3  FIT TO DATA USED IN REFINEMENT.                                     
   3   CROSS-VALIDATION METHOD          : THROUGHOUT                      
   3   FREE R VALUE TEST SET SELECTION  : RANDOM                          
   3   R VALUE            (WORKING SET) : 0.166                           
   3   FREE R VALUE                     : 0.189                           
   3   FREE R VALUE TEST SET SIZE   (%) : 4.900                           
   3   FREE R VALUE TEST SET COUNT      : 759                             
   3   ESTIMATED ERROR OF FREE R VALUE  : 0.007                           
   3                                                                      
   3  FIT IN THE HIGHEST RESOLUTION BIN.                                  
   3   TOTAL NUMBER OF BINS USED           : 6                            
   3   BIN RESOLUTION RANGE HIGH       (A) : 2.00                         
   3   BIN RESOLUTION RANGE LOW        (A) : 2.13                         
   3   BIN COMPLETENESS (WORKING+TEST) (%) : 81.10                        
   3   REFLECTIONS IN BIN    (WORKING SET) : 2042                         
   3   BIN R VALUE           (WORKING SET) : 0.1720                       
   3   BIN FREE R VALUE                    : 0.2220                       
   3   BIN FREE R VALUE TEST SET SIZE  (%) : 4.20                         
   3   BIN FREE R VALUE TEST SET COUNT     : 89                           
   3   ESTIMATED ERROR OF BIN FREE R VALUE : 0.023                        
   3                                                                      
   3  NUMBER OF NON-HYDROGEN ATOMS USED IN REFINEMENT.                    
   3   PROTEIN ATOMS            : 2024                                    
   3   NUCLEIC ACID ATOMS       : 0                                       
   3   HETEROGEN ATOMS          : 68                                      
   3   SOLVENT ATOMS            : 193                                     
   3                                                                      
   3  B VALUES.                                                           
   3   FROM WILSON PLOT           (A**2) : 6.80                           
   3   MEAN B VALUE      (OVERALL, A**2) : 12.10                          
   3   OVERALL ANISOTROPIC B VALUE.                                       
   3    B11 (A**2) : 3.45000                                              
   3    B22 (A**2) : -1.96000                                             
   3    B33 (A**2) : -1.49000                                             
   3    B12 (A**2) : 0.00000                                              
   3    B13 (A**2) : 0.00000                                              
   3    B23 (A**2) : 0.00000                                              
   3                                                                      
   3  ESTIMATED COORDINATE ERROR.                                         
   3   ESD FROM LUZZATI PLOT        (A) : 0.17                            
   3   ESD FROM SIGMAA              (A) : 0.08                            
   3   LOW RESOLUTION CUTOFF        (A) : 5.00                            
   3                                                                      
   3  CROSS-VALIDATED ESTIMATED COORDINATE ERROR.                         
   3   ESD FROM C-V LUZZATI PLOT    (A) : 0.20                            
   3   ESD FROM C-V SIGMAA          (A) : 0.12                            
   3                                                                      
   3  RMS DEVIATIONS FROM IDEAL VALUES.                                   
   3   BOND LENGTHS                 (A) : 0.008                           
   3   BOND ANGLES            (DEGREES) : 1.500                           
   3   DIHEDRAL ANGLES        (DEGREES) : 21.40                           
   3   IMPROPER ANGLES        (DEGREES) : 0.900                           
   3                                                                      
   3  ISOTROPIC THERMAL MODEL : RESTRAINED                                
   3                                                                      
   3  ISOTROPIC THERMAL FACTOR RESTRAINTS.    RMS    SIGMA                
   3   MAIN-CHAIN BOND              (A**2) : 1.110 ; 1.500                
   3   MAIN-CHAIN ANGLE             (A**2) : 1.510 ; 2.000                
   3   SIDE-CHAIN BOND              (A**2) : 2.020 ; 2.000                
   3   SIDE-CHAIN ANGLE             (A**2) : 2.850 ; 2.500                
   3                                                                      
   3  BULK SOLVENT MODELING.                                              
   3   METHOD USED : FLAT MODEL                                           
   3   KSOL        : 0.51                                                 
   3   BSOL        : 89.18                                                
   3                                                                      
   3  NCS MODEL : NULL                                                    
   3                                                                      
   3  NCS RESTRAINTS.                         RMS   SIGMA/WEIGHT          
   3   GROUP  1  POSITIONAL            (A) : NULL  ; NULL                 
   3   GROUP  1  B-FACTOR           (A**2) : NULL  ; NULL                 
   3                                                                      
   3  PARAMETER FILE  1  : PROTEIN_REP.PARAM                              
   3  PARAMETER FILE  2  : WATER_REP.PARAM                                
   3  PARAMETER FILE  3  : PARM.MA1                                       
   3  PARAMETER FILE  4  : WY2.PAR                                        
   3  PARAMETER FILE  5  : NULL                                           
   3  TOPOLOGY FILE  1   : PROTEIN.TOP                                    
   3  TOPOLOGY FILE  2   : WATER.TOP                                      
   3  TOPOLOGY FILE  3   : PARM.TOP                                       
   3  TOPOLOGY FILE  4   : WY2.TOP                                        
   3  TOPOLOGY FILE  5   : NULL                                           
   3                                                                      
   3  OTHER REFINEMENT REMARKS: NULL                                      
   4                                                                      
   4 1Q2P COMPLIES WITH FORMAT V. 3.30, 13-JUL-11                         
 100                                                                      
 100 THIS ENTRY HAS BEEN PROCESSED BY RCSB ON 31-JUL-03.                  
 100 THE DEPOSITION ID IS D_1000019840.                                   
 200                                                                      
 200 EXPERIMENTAL DETAILS                                                 
 200  EXPERIMENT TYPE                : X-RAY DIFFRACTION                  
 200  DATE OF DATA COLLECTION        : 23-DEC-02                          
 200  TEMPERATURE           (KELVIN) : 100                                
 200  PH                             : 7.0                                
 200  NUMBER OF CRYSTALS USED        : 1                                  
 200                                                                      
 200  SYNCHROTRON              (Y/N) : N                                  
 200  RADIATION SOURCE               : ROTATING ANODE                     
 200  BEAMLINE                       : NULL                               
 200  X-RAY GENERATOR MODEL          : RIGAKU RU200                       
 200  MONOCHROMATIC OR LAUE    (M/L) : M                                  
 200  WAVELENGTH OR RANGE        (A) : 1.5418                             
 200  MONOCHROMATOR                  : NI FILTER                          
 200  OPTICS                         : FRANKS MIRRORS                     
 200                                                                      
 200  DETECTOR TYPE                  : AREA DETECTOR                      
 200  DETECTOR MANUFACTURER          : SIEMENS HI-STAR                    
 200  INTENSITY-INTEGRATION SOFTWARE : X-GEN                              
 200  DATA SCALING SOFTWARE          : X-GEN                              
 200                                                                      
 200  NUMBER OF UNIQUE REFLECTIONS   : 15709                              
 200  RESOLUTION RANGE HIGH      (A) : 2.000                              
 200  RESOLUTION RANGE LOW       (A) : 50.000                             
 200  REJECTION CRITERIA  (SIGMA(I)) : 0.000                              
 200                                                                      
 200 OVERALL.                                                             
 200  COMPLETENESS FOR RANGE     (%) : 97.4                               
 200  DATA REDUNDANCY                : 6.200                              
 200  R MERGE                    (I) : NULL                               
 200  R SYM                      (I) : 0.05900                            
 200  <I/SIGMA(I)> FOR THE DATA SET  : 18.3000                            
 200                                                                      
 200 IN THE HIGHEST RESOLUTION SHELL.                                     
 200  HIGHEST RESOLUTION SHELL, RANGE HIGH (A) : 2.00                     
 200  HIGHEST RESOLUTION SHELL, RANGE LOW  (A) : 2.13                     
 200  COMPLETENESS FOR SHELL     (%) : 84.4                               
 200  DATA REDUNDANCY IN SHELL       : 2.80                               
 200  R MERGE FOR SHELL          (I) : NULL                               
 200  R SYM FOR SHELL            (I) : 0.15200                            
 200  <I/SIGMA(I)> FOR SHELL         : 5.000                              
 200                                                                      
 200 DIFFRACTION PROTOCOL: SINGLE WAVELENGTH                              
 200 METHOD USED TO DETERMINE THE STRUCTURE: MOLECULAR REPLACEMENT        
 200 SOFTWARE USED: CNS 1.1                                               
 200 STARTING MODEL: 1SHV                                                 
 200                                                                      
 200 REMARK: NULL                                                         
 280                                                                      
 280 CRYSTAL                                                              
 280 SOLVENT CONTENT, VS   (%): 41.00                                     
 280 MATTHEWS COEFFICIENT, VM (ANGSTROMS**3/DA): 2.10                     
 280                                                                      
 280 CRYSTALLIZATION CONDITIONS: PEG 6000, HEPES, CYMAL-6, PH 7.0,        
 280  VAPOR DIFFUSION, SITTING DROP, TEMPERATURE 296K                     
 290                                                                      
 290 CRYSTALLOGRAPHIC SYMMETRY                                            
 290 SYMMETRY OPERATORS FOR SPACE GROUP: P 21 21 21                       
 290                                                                      
 290      SYMOP   SYMMETRY                                                
 290     NNNMMM   OPERATOR                                                
 290       1555   X,Y,Z                                                   
 290       2555   -X+1/2,-Y,Z+1/2                                         
 290       3555   -X,Y+1/2,-Z+1/2                                         
 290       4555   X+1/2,-Y+1/2,-Z                                         
 290                                                                      
 290     WHERE NNN -> OPERATOR NUMBER                                     
 290           MMM -> TRANSLATION VECTOR                                  
 290                                                                      
 290 CRYSTALLOGRAPHIC SYMMETRY TRANSFORMATIONS                            
 290 THE FOLLOWING TRANSFORMATIONS OPERATE ON THE ATOM/HETATM             
 290 RECORDS IN THIS ENTRY TO PRODUCE CRYSTALLOGRAPHICALLY                
 290 RELATED MOLECULES.                                                   
 290   SMTRY1   1  1.000000  0.000000  0.000000        0.00000            
 290   SMTRY2   1  0.000000  1.000000  0.000000        0.00000            
 290   SMTRY3   1  0.000000  0.000000  1.000000        0.00000            
 290   SMTRY1   2 -1.000000  0.000000  0.000000       24.76600            
 290   SMTRY2   2  0.000000 -1.000000  0.000000        0.00000            
 290   SMTRY3   2  0.000000  0.000000  1.000000       42.07700            
 290   SMTRY1   3 -1.000000  0.000000  0.000000        0.00000            
 290   SMTRY2   3  0.000000  1.000000  0.000000       27.55250            
 290   SMTRY3   3  0.000000  0.000000 -1.000000       42.07700            
 290   SMTRY1   4  1.000000  0.000000  0.000000       24.76600            
 290   SMTRY2   4  0.000000 -1.000000  0.000000       27.55250            
 290   SMTRY3   4  0.000000  0.000000 -1.000000        0.00000            
 290                                                                      
 290 REMARK: NULL                                                         
 300                                                                      
 300 BIOMOLECULE: 1                                                       
 300 SEE REMARK 350 FOR THE AUTHOR PROVIDED AND/OR PROGRAM                
 300 GENERATED ASSEMBLY INFORMATION FOR THE STRUCTURE IN                  
 300 THIS ENTRY. THE REMARK MAY ALSO PROVIDE INFORMATION ON               
 300 BURIED SURFACE AREA.                                                 
 350                                                                      
 350 COORDINATES FOR A COMPLETE MULTIMER REPRESENTING THE KNOWN           
 350 BIOLOGICALLY SIGNIFICANT OLIGOMERIZATION STATE OF THE                
 350 MOLECULE CAN BE GENERATED BY APPLYING BIOMT TRANSFORMATIONS          
 350 GIVEN BELOW.  BOTH NON-CRYSTALLOGRAPHIC AND                          
 350 CRYSTALLOGRAPHIC OPERATIONS ARE GIVEN.                               
 350                                                                      
 350 BIOMOLECULE: 1                                                       
 350 AUTHOR DETERMINED BIOLOGICAL UNIT: MONOMERIC                         
 350 APPLY THE FOLLOWING TO CHAINS: A                                     
 350   BIOMT1   1  1.000000  0.000000  0.000000        0.00000            
 350   BIOMT2   1  0.000000  1.000000  0.000000        0.00000            
 350   BIOMT3   1  0.000000  0.000000  1.000000        0.00000            
 500                                                                      
 500 GEOMETRY AND STEREOCHEMISTRY                                         
 500 SUBTOPIC: COVALENT BOND LENGTHS                                      
 500                                                                      
 500 THE STEREOCHEMICAL PARAMETERS OF THE FOLLOWING RESIDUES              
 500 HAVE VALUES WHICH DEVIATE FROM EXPECTED VALUES BY MORE               
 500 THAN 6*RMSD (M=MODEL NUMBER; RES=RESIDUE NAME; C=CHAIN               
 500 IDENTIFIER; SSEQ=SEQUENCE NUMBER; I=INSERTION CODE).                 
 500                                                                      
 500 STANDARD TABLE:                                                      
 500 FORMAT: (10X,I3,1X,2(A3,1X,A1,I4,A1,1X,A4,3X),1X,F6.3)               
 500                                                                      
 500 EXPECTED VALUES PROTEIN: ENGH AND HUBER, 1999                        
 500 EXPECTED VALUES NUCLEIC ACID: CLOWNEY ET AL 1996                     
 500                                                                      
 500  M RES CSSEQI ATM1   RES CSSEQI ATM2   DEVIATION                     
 500    SER A  70   CB    SER A  70   OG      0.088                       
 500                                                                      
 500 REMARK: NULL                                                         
 500                                                                      
 500 GEOMETRY AND STEREOCHEMISTRY                                         
 500 SUBTOPIC: TORSION ANGLES                                             
 500                                                                      
 500 TORSION ANGLES OUTSIDE THE EXPECTED RAMACHANDRAN REGIONS:            
 500 (M=MODEL NUMBER; RES=RESIDUE NAME; C=CHAIN IDENTIFIER;               
 500 SSEQ=SEQUENCE NUMBER; I=INSERTION CODE).                             
 500                                                                      
 500 STANDARD TABLE:                                                      
 500 FORMAT:(10X,I3,1X,A3,1X,A1,I4,A1,4X,F7.2,3X,F7.2)                    
 500                                                                      
 500 EXPECTED VALUES: GJ KLEYWEGT AND TA JONES (1996). PHI/PSI-           
 500 CHOLOGY: RAMACHANDRAN REVISITED. STRUCTURE 4, 1395 - 1400            
 500                                                                      
 500  M RES CSSEQI        PSI       PHI                                   
 500    MET A  69     -144.83     60.27                                   
 500    TYR A 105       93.48     68.99                                   
 500                                                                      
 500 REMARK: NULL                                                         
 610                                                                      
 610 MISSING HETEROATOM                                                   
 610 THE FOLLOWING RESIDUES HAVE MISSING ATOMS (M=MODEL NUMBER;           
 610 RES=RESIDUE NAME; C=CHAIN IDENTIFIER; SSEQ=SEQUENCE NUMBER;          
 610 I=INSERTION CODE):                                                   
 610   M RES C SSEQI                                                      
 610     MA4 A  310                                                       
 800                                                                      
 800 SITE                                                                 
 800 SITE_IDENTIFIER: AC1                                                 
 800 EVIDENCE_CODE: SOFTWARE                                              
 800 SITE_DESCRIPTION: BINDING SITE FOR RESIDUE MA4 A 300                 
 800                                                                      
 800 SITE_IDENTIFIER: AC2                                                 
 800 EVIDENCE_CODE: SOFTWARE                                              
 800 SITE_DESCRIPTION: BINDING SITE FOR RESIDUE MA4 A 310                 
 800                                                                      
 800 SITE_IDENTIFIER: AC3                                                 
 800 EVIDENCE_CODE: SOFTWARE                                              
 800 SITE_DESCRIPTION: BINDING SITE FOR RESIDUE WY2 A 400                 
 900                                                                      
 900 RELATED ENTRIES                                                      
 900 RELATED ID: 1Q2Q   RELATED DB: PDB                                   
 900 ENTEROBACTER CLOACAE GC1 CLASS C BETA-LACTAMASE COMPLEXED WITH       
 900 PENEM WAY185229                                                      
 900 RELATED ID: 1SHV   RELATED DB: PDB                                   
 900 STRUCTURE OF SHV-1 BETA-LACTAMASE                                    
 900 RELATED ID: 1ONG   RELATED DB: PDB                                   
 900 SHV-1 BETA-LACTAMASE COMPLEXED WITH PENEM WAY185489                  
 900 RELATED ID: 1ONH   RELATED DB: PDB                                   
 900 ENTEROBACTER CLOACAE GC1 CLASS C BETA-LACTAMASE COMPLEXED WITH       
 900 PENEM WAY185489                                                      

>  <DBREF>  (1) 
 1Q2P A   26   290  UNP    P14557   BLA1_ECOLI      22    286             

>  <SEQRES>  (1) 
   1 A  265  SER PRO GLN PRO LEU GLU GLN ILE LYS LEU SER GLU SER          
   2 A  265  GLN LEU SER GLY ARG VAL GLY MET ILE GLU MET ASP LEU          
   3 A  265  ALA SER GLY ARG THR LEU THR ALA TRP ARG ALA ASP GLU          
   4 A  265  ARG PHE PRO MET MET SER THR PHE LYS VAL VAL LEU CYS          
   5 A  265  GLY ALA VAL LEU ALA ARG VAL ASP ALA GLY ASP GLU GLN          
   6 A  265  LEU GLU ARG LYS ILE HIS TYR ARG GLN GLN ASP LEU VAL          
   7 A  265  ASP TYR SER PRO VAL SER GLU LYS HIS LEU ALA ASP GLY          
   8 A  265  MET THR VAL GLY GLU LEU CYS ALA ALA ALA ILE THR MET          
   9 A  265  SER ASP ASN SER ALA ALA ASN LEU LEU LEU ALA THR VAL          
  10 A  265  GLY GLY PRO ALA GLY LEU THR ALA PHE LEU ARG GLN ILE          
  11 A  265  GLY ASP ASN VAL THR ARG LEU ASP ARG TRP GLU THR GLU          
  12 A  265  LEU ASN GLU ALA LEU PRO GLY ASP ALA ARG ASP THR THR          
  13 A  265  THR PRO ALA SER MET ALA ALA THR LEU ARG LYS LEU LEU          
  14 A  265  THR SER GLN ARG LEU SER ALA ARG SER GLN ARG GLN LEU          
  15 A  265  LEU GLN TRP MET VAL ASP ASP ARG VAL ALA GLY PRO LEU          
  16 A  265  ILE ARG SER VAL LEU PRO ALA GLY TRP PHE ILE ALA ASP          
  17 A  265  LYS THR GLY ALA GLY GLU ARG GLY ALA ARG GLY ILE VAL          
  18 A  265  ALA LEU LEU GLY PRO ASN ASN LYS ALA GLU ARG ILE VAL          
  19 A  265  VAL ILE TYR LEU ARG ASP THR PRO ALA SER MET ALA GLU          
  20 A  265  ARG ASN GLN GLN ILE ALA GLY ILE GLY ALA ALA LEU ILE          
  21 A  265  GLU HIS TRP GLN ARG                                          

>  <HET>  (1) 
 MA4  A 300      35                                                       
 MA4  A 310      10                                                       
 WY2  A 400      23                                                       

>  <HETNAM>  (1) 
     MA4 CYCLOHEXYL-HEXYL-BETA-D-MALTOSIDE                                
     WY2 (6,7-DIHYDRO-5H-CYCLOPENTA[D]IMIDAZO[2,1-B]THIAZOL-2-            
   2 WY2  YL]-4,7-DIHYDRO[1,4]THIAZEPINE-3,6-DICARBOXYLIC ACID            

>  <FORMUL>  (1) 
   2  MA4    2(C24 H44 O11)                                               
   4  WY2    C15 H13 N3 O4 S2                                             
   5  HOH   *193(H2 O)                                                    

>  <HELIX>  (1) 
   1   1 GLN A   28  SER A   41  1                                  14    
   2   2 THR A   71  ALA A   86  1                                  16    
   3   3 ARG A   98  LEU A  102  5                                   5    
   4   4 VAL A  108  LEU A  113  5                                   6    
   5   5 VAL A  119  MET A  129  1                                  11    
   6   6 ASP A  131  VAL A  142  1                                  12    
   7   7 GLY A  143  ILE A  155  1                                  13    
   8   8 THR A  167  GLU A  171  5                                   5    
   9   9 THR A  182  SER A  196  1                                  15    
  10  10 SER A  200  ASP A  213  1                                  14    
  11  11 ALA A  217  LEU A  225  1                                   9    
  12  12 GLU A  240  GLY A  242  5                                   3    
  13  13 SER A  271  HIS A  289  1                                  19    

>  <SHEET>  (1) 
   1   A 5 THR A  56  TRP A  60  0                                        
   2   A 5 ARG A  43  ASP A  50 -1  N  MET A  46   O  TRP A  60           
   3   A 5 ARG A 259  ARG A 266 -1  O  ILE A 260   N  MET A  49           
   4   A 5 ARG A 244  GLY A 251 -1  N  LEU A 250   O  ARG A 259           
   5   A 5 PHE A 230  ALA A 237 -1  N  PHE A 230   O  GLY A 251           
   1   B 2 PHE A  66  PRO A  67  0                                        
   2   B 2 THR A 180  THR A 181 -1  O  THR A 181   N  PHE A  66           
   1   C 2 LYS A  94  ILE A  95  0                                        
   2   C 2 MET A 117  THR A 118 -1  O  MET A 117   N  ILE A  95           

>  <SSBOND>  (1) 
   1 CYS A   77    CYS A  123                          1555   1555  2.02  

>  <LINK>  (1) 
       OG  SER A  70                 C7  WY2 A 400     1555   1555  1.38  

>  <CISPEP>  (1) 
   1 GLU A  166    THR A  167          0         0.09                     

>  <SITE>  (1) 
   1 AC1 17 ARG A  93  LYS A  94  ILE A  95  HIS A  96                    
   2 AC1 17 ARG A  98  VAL A 224  PRO A 226  VAL A 261                    
   3 AC1 17 ILE A 263  ILE A 279  ALA A 280  ALA A 284                    
   4 AC1 17 GLU A 288  HOH A 529  HOH A 553  HOH A 642                    
   5 AC1 17 HOH A 692                                                     
   1 AC2  3 LEU A 220  ARG A 244  ILE A 279                               
   1 AC3 11 SER A  70  TYR A 105  SER A 130  ASN A 132                    
   2 AC3 11 GLU A 166  THR A 167  ASN A 170  GLY A 236                    
   3 AC3 11 ALA A 237  HOH A 501  HOH A 545                               

>  <ORIGX1>  (1) 
      1.000000  0.000000  0.000000        0.00000                         

>  <ORIGX2>  (1) 
      0.000000  1.000000  0.000000        0.00000                         

>  <ORIGX3>  (1) 
      0.000000  0.000000  1.000000        0.00000                         

>  <SCALE1>  (1) 
      0.020189  0.000000  0.000000        0.00000                         

>  <SCALE2>  (1) 
      0.000000  0.018147  0.000000        0.00000                         

>  <SCALE3>  (1) 
      0.000000  0.000000  0.011883        0.00000                         

>  <MASTER>  (1) 
      286    0    3   13    9    0    9    6 2285    1   71   21          

$$$$
