start_structures/Ligand_Substrate/Ligand_Complex_Stripped/O2F_8AKL.pdb
     RDKit          3D

 32 33  0  0  1  0  0  0  0  0999 V2000
   48.8012   51.8724   46.3373 N   0  0  0  0  0  0  0  0  0  0  0  0
   47.4489   51.3836   46.5432 C   0  0  2  0  0  0  0  0  0  0  0  0
   47.4036   49.8879   46.4403 C   0  0  0  0  0  0  0  0  0  0  0  0
   46.4733   49.2700   46.9371 O   0  0  0  0  0  0  0  0  0  0  0  0
   46.5170   52.0041   45.5084 C   0  0  0  0  0  0  0  0  0  0  0  0
   46.1560   53.3320   45.8737 O   0  0  0  0  0  0  0  0  0  0  0  0
   52.4861   55.2698   53.2948 C   0  0  0  0  0  0  0  0  0  0  0  0
   50.1600   54.9272   52.4599 C   0  0  0  0  0  0  0  0  0  0  0  0
   50.3104   57.4386   50.9193 C   0  0  1  0  0  0  0  0  0  0  0  0
   49.4406   59.3710   49.9824 C   0  0  0  0  0  0  0  0  0  0  0  0
   50.6319   57.3359   49.4450 C   0  0  0  0  0  0  0  0  0  0  0  0
   47.6157   57.1743   48.8759 C   0  0  2  0  0  0  0  0  0  0  0  0
   46.0340   59.1801   48.8726 C   0  0  0  0  0  0  0  0  0  0  0  0
   46.5312   55.8131   45.9908 C   0  0  1  0  0  0  0  0  0  0  0  0
   47.3737   55.7499   48.4358 C   0  0  2  0  0  0  0  0  0  0  0  0
   48.6098   54.9903   47.9656 C   0  0  0  0  0  0  0  0  0  0  0  0
   51.3678   55.7362   52.4921 N   0  0  0  0  0  0  0  0  0  0  0  0
   51.4610   56.9623   51.7518 C   0  0  0  0  0  0  0  0  0  0  0  0
   52.5256   57.6391   51.7830 O   0  0  0  0  0  0  0  0  0  0  0  0
   46.1646   55.8112   47.4932 C   0  0  1  0  0  0  0  0  0  0  0  0
   46.9209   54.4444   45.5110 C   0  0  0  0  0  0  0  0  0  0  0  0
   45.4422   56.4329   45.0983 C   0  0  2  0  0  0  0  0  0  0  0  0
   44.1582   55.6168   45.0781 C   0  0  0  0  0  0  0  0  0  0  0  0
   49.9801   58.5490   48.8279 C   0  0  1  0  0  0  0  0  0  0  0  0
   46.1840   57.6895   48.9069 C   0  0  1  0  0  0  0  0  0  0  0  0
   49.9988   58.8300   51.2136 N   0  0  0  0  0  0  0  0  0  0  0  0
   45.4299   57.0322   47.8412 N   0  0  0  0  0  0  0  0  0  0  0  0
   46.0850   59.9011   50.0577 O   0  0  0  0  0  0  0  0  0  0  0  0
   45.8958   59.7881   47.7780 O   0  0  0  0  0  0  0  0  0  0  0  0
   47.9202   54.3187   44.7530 O   0  0  0  0  0  0  0  0  0  0  0  0
   45.9164   56.6044   43.7972 O   0  0  0  0  0  0  0  0  0  0  0  0
   48.6562   58.0852   47.6551 S   0  0  0  0  0  0  0  0  0  0  0  0
  2  1  1  6
  2  5  1  0
  3  4  2  0
  3  2  1  0
  5  6  1  0
  6 21  1  0
  7 17  1  0
  8 17  1  0
  9 11  1  0
  9 18  1  1
  9 26  1  0
 10 24  1  0
 10 26  1  0
 11 24  1  0
 12 15  1  0
 12 25  1  0
 12 32  1  6
 13 28  1  0
 13 29  2  0
 14 20  1  0
 14 21  1  1
 14 22  1  0
 15 16  1  6
 15 20  1  0
 17 18  1  0
 18 19  2  0
 20 27  1  1
 21 30  2  0
 22 23  1  1
 22 31  1  0
 24 32  1  1
 25 13  1  6
 25 27  1  0
M  END
>  <HEADER>  (1) 
    ANTIMICROBIAL PROTEIN                   29-JUL-22   8AKL              

>  <TITLE>  (1) 
    ACYL-ENZYME COMPLEX OF MEROPENEM BOUND TO DEACYLATION MUTANT KPC-2    
   2 (E166Q)                                                              

>  <COMPND>  (1) 
    MOL_ID: 1;                                                            
   2 MOLECULE: CARBAPENEM-HYDROLYZING BETA-LACTAMASE KPC;                 
   3 CHAIN: A;                                                            
   4 SYNONYM: CARBAPENEM-HYDROLYZING BETA-LACTAMASE KPC-1;                
   5 EC: 3.5.2.6;                                                         
   6 ENGINEERED: YES;                                                     
   7 MUTATION: YES                                                        

>  <SOURCE>  (1) 
    MOL_ID: 1;                                                            
   2 ORGANISM_SCIENTIFIC: KLEBSIELLA PNEUMONIAE;                          
   3 ORGANISM_TAXID: 573;                                                 
   4 GENE: BLA, KPC, KPC1;                                                
   5 EXPRESSION_SYSTEM: ESCHERICHIA COLI BL21(DE3);                       
   6 EXPRESSION_SYSTEM_TAXID: 469008;                                     
   7 EXPRESSION_SYSTEM_STRAIN: SOLUBL21                                   

>  <KEYWDS>  (1) 
    ACYL-ENZYME COMPLEX, ANTIBIOTIC RESISTANCE, BETA-LACTAMASE,           
   2 ANTIBIOTIC, LIGAND, ANTIMICROBIAL PROTEIN                            

>  <EXPDTA>  (1) 
    X-RAY DIFFRACTION                                                     

>  <AUTHOR>  (1) 
    C.L.TOOKE,P.HINCHLIFFE,J.SPENCER                                      

>  <REVDAT>  (1) 
   1   08-MAR-23 8AKL    0                                                

>  <JRNL>  (1) 
      AUTH   C.L.TOOKE,P.HINCHLIFFE,J.SPENCER                             
      TITL   CARBAPENEM HYDROLYSIS BY KPC-2 IS DETERMINED BY ACYL-ENZYME  
      TITL 2 TAUTOMERISATION AND OMEGA-LOOP STABILITY                     
      REF    TO BE PUBLISHED                                              
      REFN                                                                

>  <REMARK>  (1) 
   1                                                                      
   1 REFERENCE 1                                                          
   1  AUTH   P.V.AFONINE,R.W.GROSSE-KUNSTLEVE,N.ECHOLS,J.J.HEADD,         
   1  AUTH 2 N.W.MORIARTY,M.MUSTYAKIMOV,T.C.TERWILLIGER,A.URZHUMTSEV,     
   1  AUTH 3 P.H.ZWART,P.D.ADAMS                                          
   1  TITL   TOWARDS AUTOMATED CRYSTALLOGRAPHIC STRUCTURE REFINEMENT WITH 
   1  TITL 2 PHENIX.REFINE.                                               
   1  REF    ACTA CRYSTALLOGR.,SECT.D      V.  68   352 2012              
   1  REFN                   ESSN 1399-0047                               
   1  PMID   22505256                                                     
   1  DOI    10.1107/S0907444912001308                                    
   1 REFERENCE 2                                                          
   1  AUTH   D.LIEBSCHNER,P.V.AFONINE,M.L.BAKER,G.BUNKOCZI,V.B.CHEN,      
   1  AUTH 2 T.I.CROLL,B.HINTZE,L.W.HUNG,S.JAIN,A.J.MCCOY,N.W.MORIARTY,   
   1  AUTH 3 R.D.OEFFNER,B.K.POON,M.G.PRISANT,R.J.READ,J.S.RICHARDSON,    
   1  AUTH 4 D.C.RICHARDSON,M.D.SAMMITO,O.V.SOBOLEV,D.H.STOCKWELL,        
   1  AUTH 5 T.C.TERWILLIGER,A.G.URZHUMTSEV,L.L.VIDEAU,C.J.WILLIAMS,      
   1  AUTH 6 P.D.ADAMS                                                    
   1  TITL   MACROMOLECULAR STRUCTURE DETERMINATION USING X-RAYS,         
   1  TITL 2 NEUTRONS AND ELECTRONS: RECENT DEVELOPMENTS IN PHENIX.       
   1  REF    ACTA CRYSTALLOGR D STRUCT     V.  75   861 2019              
   1  REF  2 BIOL                                                         
   1  REFN                   ISSN 2059-7983                               
   1  PMID   31588918                                                     
   1  DOI    10.1107/S2059798319011471                                    
   2                                                                      
   2 RESOLUTION.    1.35 ANGSTROMS.                                       
   3                                                                      
   3 REFINEMENT.                                                          
   3   PROGRAM     : PHENIX 1.18.2_3874                                   
   3   AUTHORS     : PAUL ADAMS,PAVEL AFONINE,VINCENT CHEN,IAN            
   3               : DAVIS,KRESHNA GOPAL,RALF GROSSE-KUNSTLEVE,           
   3               : LI-WEI HUNG,ROBERT IMMORMINO,TOM IOERGER,            
   3               : AIRLIE MCCOY,ERIK MCKEE,NIGEL MORIARTY,              
   3               : REETAL PAI,RANDY READ,JANE RICHARDSON,               
   3               : DAVID RICHARDSON,TOD ROMO,JIM SACCHETTINI,           
   3               : NICHOLAS SAUTER,JACOB SMITH,LAURENT                  
   3               : STORONI,TOM TERWILLIGER,PETER ZWART                  
   3                                                                      
   3    REFINEMENT TARGET : ML                                            
   3                                                                      
   3  DATA USED IN REFINEMENT.                                            
   3   RESOLUTION RANGE HIGH (ANGSTROMS) : 1.35                           
   3   RESOLUTION RANGE LOW  (ANGSTROMS) : 45.86                          
   3   MIN(FOBS/SIGMA_FOBS)              : 1.340                          
   3   COMPLETENESS FOR RANGE        (%) : 99.9                           
   3   NUMBER OF REFLECTIONS             : 60064                          
   3                                                                      
   3  FIT TO DATA USED IN REFINEMENT.                                     
   3   R VALUE     (WORKING + TEST SET) : 0.137                           
   3   R VALUE            (WORKING SET) : 0.135                           
   3   FREE R VALUE                     : 0.166                           
   3   FREE R VALUE TEST SET SIZE   (%) : 5.120                           
   3   FREE R VALUE TEST SET COUNT      : 3075                            
   3                                                                      
   3  FIT TO DATA USED IN REFINEMENT (IN BINS).                           
   3   BIN  RESOLUTION RANGE  COMPL.    NWORK NFREE   RWORK  RFREE        
   3     1 45.8600 -  3.7800    1.00     2799   147  0.1509 0.1621        
   3     2  3.7800 -  3.0000    1.00     2682   137  0.1260 0.1473        
   3     3  3.0000 -  2.6200    1.00     2611   165  0.1226 0.1566        
   3     4  2.6200 -  2.3800    1.00     2639   125  0.1132 0.1365        
   3     5  2.3800 -  2.2100    1.00     2611   128  0.1114 0.1421        
   3     6  2.2100 -  2.0800    1.00     2593   135  0.1128 0.1627        
   3     7  2.0800 -  1.9800    1.00     2618   125  0.1129 0.1475        
   3     8  1.9800 -  1.8900    1.00     2569   145  0.1148 0.1478        
   3     9  1.8900 -  1.8200    1.00     2603   132  0.1064 0.1549        
   3    10  1.8200 -  1.7600    1.00     2566   150  0.1079 0.1573        
   3    11  1.7600 -  1.7000    1.00     2583   137  0.1115 0.1328        
   3    12  1.7000 -  1.6500    1.00     2530   151  0.1125 0.1487        
   3    13  1.6500 -  1.6100    1.00     2571   152  0.1353 0.1721        
   3    14  1.6100 -  1.5700    1.00     2561   150  0.1368 0.2006        
   3    15  1.5700 -  1.5300    1.00     2559   137  0.1458 0.1760        
   3    16  1.5300 -  1.5000    1.00     2569   132  0.1615 0.1917        
   3    17  1.5000 -  1.4700    1.00     2559   135  0.1715 0.2364        
   3    18  1.4700 -  1.4400    1.00     2535   152  0.1850 0.2400        
   3    19  1.4400 -  1.4200    1.00     2574   144  0.1980 0.2339        
   3    20  1.4200 -  1.3900    1.00     2576   119  0.2345 0.2372        
   3    21  1.3900 -  1.3700    1.00     2532   141  0.2804 0.3304        
   3    22  1.3700 -  1.3500    1.00     2549   136  0.3356 0.3773        
   3                                                                      
   3  BULK SOLVENT MODELLING.                                             
   3   METHOD USED        : FLAT BULK SOLVENT MODEL                       
   3   SOLVENT RADIUS     : 1.11                                          
   3   SHRINKAGE RADIUS   : 0.90                                          
   3   K_SOL              : NULL                                          
   3   B_SOL              : NULL                                          
   3                                                                      
   3  ERROR ESTIMATES.                                                    
   3   COORDINATE ERROR (MAXIMUM-LIKELIHOOD BASED)     : 0.150            
   3   PHASE ERROR (DEGREES, MAXIMUM-LIKELIHOOD BASED) : 16.970           
   3                                                                      
   3  B VALUES.                                                           
   3   FROM WILSON PLOT           (A**2) : NULL                           
   3   MEAN B VALUE      (OVERALL, A**2) : 21.69                          
   3   OVERALL ANISOTROPIC B VALUE.                                       
   3    B11 (A**2) : NULL                                                 
   3    B22 (A**2) : NULL                                                 
   3    B33 (A**2) : NULL                                                 
   3    B12 (A**2) : NULL                                                 
   3    B13 (A**2) : NULL                                                 
   3    B23 (A**2) : NULL                                                 
   3                                                                      
   3  TWINNING INFORMATION.                                               
   3   FRACTION: NULL                                                     
   3   OPERATOR: NULL                                                     
   3                                                                      
   3  DEVIATIONS FROM IDEAL VALUES.                                       
   3                 RMSD          COUNT                                  
   3   BOND      :   NULL           NULL                                  
   3   ANGLE     :   NULL           NULL                                  
   3   CHIRALITY :   NULL           NULL                                  
   3   PLANARITY :   NULL           NULL                                  
   3   DIHEDRAL  :   NULL           NULL                                  
   3                                                                      
   3  TLS DETAILS                                                         
   3   NUMBER OF TLS GROUPS  : NULL                                       
   3                                                                      
   3  NCS DETAILS                                                         
   3   NUMBER OF NCS GROUPS : NULL                                        
   3                                                                      
   3  OTHER REFINEMENT REMARKS: NULL                                      
   4                                                                      
   4 8AKL COMPLIES WITH FORMAT V. 3.30, 13-JUL-11                         
 100                                                                      
 100 THIS ENTRY HAS BEEN PROCESSED BY PDBE ON 16-AUG-22.                  
 100 THE DEPOSITION ID IS D_1292124687.                                   
 200                                                                      
 200 EXPERIMENTAL DETAILS                                                 
 200  EXPERIMENT TYPE                : X-RAY DIFFRACTION                  
 200  DATE OF DATA COLLECTION        : 01-MAY-19                          
 200  TEMPERATURE           (KELVIN) : 100                                
 200  PH                             : NULL                               
 200  NUMBER OF CRYSTALS USED        : 1                                  
 200                                                                      
 200  SYNCHROTRON              (Y/N) : Y                                  
 200  RADIATION SOURCE               : ALBA                               
 200  BEAMLINE                       : XALOC                              
 200  X-RAY GENERATOR MODEL          : NULL                               
 200  MONOCHROMATIC OR LAUE    (M/L) : M                                  
 200  WAVELENGTH OR RANGE        (A) : 0.899960                           
 200  MONOCHROMATOR                  : NULL                               
 200  OPTICS                         : NULL                               
 200                                                                      
 200  DETECTOR TYPE                  : PIXEL                              
 200  DETECTOR MANUFACTURER          : DECTRIS PILATUS 6M                 
 200  INTENSITY-INTEGRATION SOFTWARE : XDS                                
 200  DATA SCALING SOFTWARE          : AIMLESS                            
 200                                                                      
 200  NUMBER OF UNIQUE REFLECTIONS   : 60125                              
 200  RESOLUTION RANGE HIGH      (A) : 1.350                              
 200  RESOLUTION RANGE LOW       (A) : 45.860                             
 200  REJECTION CRITERIA  (SIGMA(I)) : NULL                               
 200                                                                      
 200 OVERALL.                                                             
 200  COMPLETENESS FOR RANGE     (%) : 100.0                              
 200  DATA REDUNDANCY                : 13.10                              
 200  R MERGE                    (I) : NULL                               
 200  R SYM                      (I) : NULL                               
 200  <I/SIGMA(I)> FOR THE DATA SET  : 14.7000                            
 200                                                                      
 200 IN THE HIGHEST RESOLUTION SHELL.                                     
 200  HIGHEST RESOLUTION SHELL, RANGE HIGH (A) : 1.35                     
 200  HIGHEST RESOLUTION SHELL, RANGE LOW  (A) : 1.37                     
 200  COMPLETENESS FOR SHELL     (%) : NULL                               
 200  DATA REDUNDANCY IN SHELL       : NULL                               
 200  R MERGE FOR SHELL          (I) : NULL                               
 200  R SYM FOR SHELL            (I) : NULL                               
 200  <I/SIGMA(I)> FOR SHELL         : 1.300                              
 200                                                                      
 200 DIFFRACTION PROTOCOL: SINGLE WAVELENGTH                              
 200 METHOD USED TO DETERMINE THE STRUCTURE: MOLECULAR REPLACEMENT        
 200 SOFTWARE USED: NULL                                                  
 200 STARTING MODEL: 6Z21                                                 
 200                                                                      
 200 REMARK: NULL                                                         
 280                                                                      
 280 CRYSTAL                                                              
 280 SOLVENT CONTENT, VS   (%): 43.83                                     
 280 MATTHEWS COEFFICIENT, VM (ANGSTROMS**3/DA): 2.19                     
 280                                                                      
 280 CRYSTALLIZATION CONDITIONS: 2.0 M AMMONIUM SULPHATE, 5% V/V          
 280  ETHANOL, VAPOR DIFFUSION, SITTING DROP, TEMPERATURE 293.15K         
 290                                                                      
 290 CRYSTALLOGRAPHIC SYMMETRY                                            
 290 SYMMETRY OPERATORS FOR SPACE GROUP: P 21 21 2                        
 290                                                                      
 290      SYMOP   SYMMETRY                                                
 290     NNNMMM   OPERATOR                                                
 290       1555   X,Y,Z                                                   
 290       2555   -X,-Y,Z                                                 
 290       3555   -X+1/2,Y+1/2,-Z                                         
 290       4555   X+1/2,-Y+1/2,-Z                                         
 290                                                                      
 290     WHERE NNN -> OPERATOR NUMBER                                     
 290           MMM -> TRANSLATION VECTOR                                  
 290                                                                      
 290 CRYSTALLOGRAPHIC SYMMETRY TRANSFORMATIONS                            
 290 THE FOLLOWING TRANSFORMATIONS OPERATE ON THE ATOM/HETATM             
 290 RECORDS IN THIS ENTRY TO PRODUCE CRYSTALLOGRAPHICALLY                
 290 RELATED MOLECULES.                                                   
 290   SMTRY1   1  1.000000  0.000000  0.000000        0.00000            
 290   SMTRY2   1  0.000000  1.000000  0.000000        0.00000            
 290   SMTRY3   1  0.000000  0.000000  1.000000        0.00000            
 290   SMTRY1   2 -1.000000  0.000000  0.000000        0.00000            
 290   SMTRY2   2  0.000000 -1.000000  0.000000        0.00000            
 290   SMTRY3   2  0.000000  0.000000  1.000000        0.00000            
 290   SMTRY1   3 -1.000000  0.000000  0.000000       30.28150            
 290   SMTRY2   3  0.000000  1.000000  0.000000       39.60300            
 290   SMTRY3   3  0.000000  0.000000 -1.000000        0.00000            
 290   SMTRY1   4  1.000000  0.000000  0.000000       30.28150            
 290   SMTRY2   4  0.000000 -1.000000  0.000000       39.60300            
 290   SMTRY3   4  0.000000  0.000000 -1.000000        0.00000            
 290                                                                      
 290 REMARK: NULL                                                         
 300                                                                      
 300 BIOMOLECULE: 1                                                       
 300 SEE REMARK 350 FOR THE AUTHOR PROVIDED AND/OR PROGRAM                
 300 GENERATED ASSEMBLY INFORMATION FOR THE STRUCTURE IN                  
 300 THIS ENTRY. THE REMARK MAY ALSO PROVIDE INFORMATION ON               
 300 BURIED SURFACE AREA.                                                 
 350                                                                      
 350 COORDINATES FOR A COMPLETE MULTIMER REPRESENTING THE KNOWN           
 350 BIOLOGICALLY SIGNIFICANT OLIGOMERIZATION STATE OF THE                
 350 MOLECULE CAN BE GENERATED BY APPLYING BIOMT TRANSFORMATIONS          
 350 GIVEN BELOW.  BOTH NON-CRYSTALLOGRAPHIC AND                          
 350 CRYSTALLOGRAPHIC OPERATIONS ARE GIVEN.                               
 350                                                                      
 350 BIOMOLECULE: 1                                                       
 350 SOFTWARE DETERMINED QUATERNARY STRUCTURE: MONOMERIC                  
 350 SOFTWARE USED: PISA                                                  
 350 TOTAL BURIED SURFACE AREA: 720 ANGSTROM**2                           
 350 SURFACE AREA OF THE COMPLEX: 11450 ANGSTROM**2                       
 350 CHANGE IN SOLVENT FREE ENERGY: -34.0 KCAL/MOL                        
 350 APPLY THE FOLLOWING TO CHAINS: A                                     
 350   BIOMT1   1  1.000000  0.000000  0.000000        0.00000            
 350   BIOMT2   1  0.000000  1.000000  0.000000        0.00000            
 350   BIOMT3   1  0.000000  0.000000  1.000000        0.00000            
 375                                                                      
 375 SPECIAL POSITION                                                     
 375 THE FOLLOWING ATOMS ARE FOUND TO BE WITHIN 0.15 ANGSTROMS            
 375 OF A SYMMETRY RELATED ATOM AND ARE ASSUMED TO BE ON SPECIAL          
 375 POSITIONS.                                                           
 375                                                                      
 375 ATOM RES CSSEQI                                                      
 375 S    SO4 A 406  LIES ON A SPECIAL POSITION.                          
 375      HOH A 566  LIES ON A SPECIAL POSITION.                          
 465                                                                      
 465 MISSING RESIDUES                                                     
 465 THE FOLLOWING RESIDUES WERE NOT LOCATED IN THE                       
 465 EXPERIMENT. (M=MODEL NUMBER; RES=RESIDUE NAME; C=CHAIN               
 465 IDENTIFIER; SSSEQ=SEQUENCE NUMBER; I=INSERTION CODE.)                
 465                                                                      
 465   M RES C SSSEQI                                                     
 465     MET A     4                                                      
 465     GLY A     5                                                      
 465     SER A     6                                                      
 465     SER A     7                                                      
 465     HIS A     8                                                      
 465     HIS A     9                                                      
 465     HIS A    10                                                      
 465     HIS A    11                                                      
 465     HIS A    12                                                      
 465     HIS A    13                                                      
 465     SER A    14                                                      
 465     SER A    15                                                      
 465     GLY A    16                                                      
 465     LEU A    17                                                      
 465     VAL A    18                                                      
 465     PRO A    19                                                      
 465     ARG A    20                                                      
 465     GLY A    21                                                      
 465     SER A    22                                                      
 465     HIS A    23                                                      
 465     GLN A   295                                                      
 500                                                                      
 500 GEOMETRY AND STEREOCHEMISTRY                                         
 500 SUBTOPIC: CLOSE CONTACTS IN SAME ASYMMETRIC UNIT                     
 500                                                                      
 500 THE FOLLOWING ATOMS ARE IN CLOSE CONTACT.                            
 500                                                                      
 500  ATM1  RES C  SSEQI   ATM2  RES C  SSEQI           DISTANCE          
 500   H    GLY A    89     O    HOH A   505              1.55            
 500   O    HOH A   668     O    HOH A   736              1.92            
 500   O    HOH A   611     O    HOH A   712              2.06            
 500   O    HOH A   722     O    HOH A   755              2.08            
 500   O    HOH A   600     O    HOH A   710              2.10            
 500   O    HOH A   628     O    HOH A   694              2.10            
 500   O    HOH A   716     O    HOH A   743              2.14            
 500   O    HOH A   705     O    HOH A   727              2.16            
 500   O    HOH A   518     O    HOH A   693              2.18            
 500                                                                      
 500 REMARK: NULL                                                         
 500                                                                      
 500 GEOMETRY AND STEREOCHEMISTRY                                         
 500 SUBTOPIC: CLOSE CONTACTS                                             
 500                                                                      
 500 THE FOLLOWING ATOMS THAT ARE RELATED BY CRYSTALLOGRAPHIC             
 500 SYMMETRY ARE IN CLOSE CONTACT.  AN ATOM LOCATED WITHIN 0.15          
 500 ANGSTROMS OF A SYMMETRY RELATED ATOM IS ASSUMED TO BE ON A           
 500 SPECIAL POSITION AND IS, THEREFORE, LISTED IN REMARK 375             
 500 INSTEAD OF REMARK 500.  ATOMS WITH NON-BLANK ALTERNATE               
 500 LOCATION INDICATORS ARE NOT INCLUDED IN THE CALCULATIONS.            
 500                                                                      
 500 DISTANCE CUTOFF:                                                     
 500 2.2 ANGSTROMS FOR CONTACTS NOT INVOLVING HYDROGEN ATOMS              
 500 1.6 ANGSTROMS FOR CONTACTS INVOLVING HYDROGEN ATOMS                  
 500                                                                      
 500  ATM1  RES C  SSEQI   ATM2  RES C  SSEQI  SSYMOP   DISTANCE          
 500   O    HOH A   726     O    HOH A   762     3555     1.88            
 500   O    HOH A   501     O    HOH A   502     4455     1.98            
 500                                                                      
 500 REMARK: NULL                                                         
 500                                                                      
 500 GEOMETRY AND STEREOCHEMISTRY                                         
 500 SUBTOPIC: TORSION ANGLES                                             
 500                                                                      
 500 TORSION ANGLES OUTSIDE THE EXPECTED RAMACHANDRAN REGIONS:            
 500 (M=MODEL NUMBER; RES=RESIDUE NAME; C=CHAIN IDENTIFIER;               
 500 SSEQ=SEQUENCE NUMBER; I=INSERTION CODE).                             
 500                                                                      
 500 STANDARD TABLE:                                                      
 500 FORMAT:(10X,I3,1X,A3,1X,A1,I4,A1,4X,F7.2,3X,F7.2)                    
 500                                                                      
 500 EXPECTED VALUES: GJ KLEYWEGT AND TA JONES (1996). PHI/PSI-           
 500 CHOLOGY: RAMACHANDRAN REVISITED. STRUCTURE 4, 1395 - 1400            
 500                                                                      
 500  M RES CSSEQI        PSI       PHI                                   
 500    CYS A  69     -142.91     50.25                                   
 500    TRP A 105       72.19     54.36                                   
 500    TRP A 105       65.31     62.48                                   
 500    LEU A 167       22.46     49.37                                   
 500    ARG A 220     -123.67   -114.69                                   
 500                                                                      
 500 REMARK: NULL                                                         
 525                                                                      
 525 SOLVENT                                                              
 525                                                                      
 525 THE SOLVENT MOLECULES HAVE CHAIN IDENTIFIERS THAT                    
 525 INDICATE THE POLYMER CHAIN WITH WHICH THEY ARE MOST                  
 525 CLOSELY ASSOCIATED. THE REMARK LISTS ALL THE SOLVENT                 
 525 MOLECULES WHICH ARE MORE THAN 5A AWAY FROM THE                       
 525 NEAREST POLYMER CHAIN (M = MODEL NUMBER;                             
 525 RES=RESIDUE NAME; C=CHAIN IDENTIFIER; SSEQ=SEQUENCE                  
 525 NUMBER; I=INSERTION CODE):                                           
 525                                                                      
 525  M RES CSSEQI                                                        
 525    HOH A 791        DISTANCE =  5.86 ANGSTROMS                       
 525    HOH A 792        DISTANCE =  6.65 ANGSTROMS                       
 525    HOH A 793        DISTANCE =  7.36 ANGSTROMS                       

>  <DBREF>  (1) 
 8AKL A   25   295  UNP    Q9F663   BLKPC_KLEPN     25    293             

>  <SEQADV>  (1) 
 8AKL MET A    4  UNP  Q9F663              INITIATING METHIONINE          
 8AKL GLY A    5  UNP  Q9F663              EXPRESSION TAG                 
 8AKL SER A    6  UNP  Q9F663              EXPRESSION TAG                 
 8AKL SER A    7  UNP  Q9F663              EXPRESSION TAG                 
 8AKL HIS A    8  UNP  Q9F663              EXPRESSION TAG                 
 8AKL HIS A    9  UNP  Q9F663              EXPRESSION TAG                 
 8AKL HIS A   10  UNP  Q9F663              EXPRESSION TAG                 
 8AKL HIS A   11  UNP  Q9F663              EXPRESSION TAG                 
 8AKL HIS A   12  UNP  Q9F663              EXPRESSION TAG                 
 8AKL HIS A   13  UNP  Q9F663              EXPRESSION TAG                 
 8AKL SER A   14  UNP  Q9F663              EXPRESSION TAG                 
 8AKL SER A   15  UNP  Q9F663              EXPRESSION TAG                 
 8AKL GLY A   16  UNP  Q9F663              EXPRESSION TAG                 
 8AKL LEU A   17  UNP  Q9F663              EXPRESSION TAG                 
 8AKL VAL A   18  UNP  Q9F663              EXPRESSION TAG                 
 8AKL PRO A   19  UNP  Q9F663              EXPRESSION TAG                 
 8AKL ARG A   20  UNP  Q9F663              EXPRESSION TAG                 
 8AKL GLY A   21  UNP  Q9F663              EXPRESSION TAG                 
 8AKL SER A   22  UNP  Q9F663              EXPRESSION TAG                 
 8AKL HIS A   23  UNP  Q9F663              EXPRESSION TAG                 
 8AKL MET A   24  UNP  Q9F663              EXPRESSION TAG                 
 8AKL GLN A  166  UNP  Q9F663    GLU   165 ENGINEERED MUTATION            

>  <SEQRES>  (1) 
   1 A  290  MET GLY SER SER HIS HIS HIS HIS HIS HIS SER SER GLY          
   2 A  290  LEU VAL PRO ARG GLY SER HIS MET LEU THR ASN LEU VAL          
   3 A  290  ALA GLU PRO PHE ALA LYS LEU GLU GLN ASP PHE GLY GLY          
   4 A  290  SER ILE GLY VAL TYR ALA MET ASP THR GLY SER GLY ALA          
   5 A  290  THR VAL SER TYR ARG ALA GLU GLU ARG PHE PRO LEU CYS          
   6 A  290  SER SER PHE LYS GLY PHE LEU ALA ALA ALA VAL LEU ALA          
   7 A  290  ARG SER GLN GLN GLN ALA GLY LEU LEU ASP THR PRO ILE          
   8 A  290  ARG TYR GLY LYS ASN ALA LEU VAL PRO TRP SER PRO ILE          
   9 A  290  SER GLU LYS TYR LEU THR THR GLY MET THR VAL ALA GLU          
  10 A  290  LEU SER ALA ALA ALA VAL GLN TYR SER ASP ASN ALA ALA          
  11 A  290  ALA ASN LEU LEU LEU LYS GLU LEU GLY GLY PRO ALA GLY          
  12 A  290  LEU THR ALA PHE MET ARG SER ILE GLY ASP THR THR PHE          
  13 A  290  ARG LEU ASP ARG TRP GLN LEU GLU LEU ASN SER ALA ILE          
  14 A  290  PRO GLY ASP ALA ARG ASP THR SER SER PRO ARG ALA VAL          
  15 A  290  THR GLU SER LEU GLN LYS LEU THR LEU GLY SER ALA LEU          
  16 A  290  ALA ALA PRO GLN ARG GLN GLN PHE VAL ASP TRP LEU LYS          
  17 A  290  GLY ASN THR THR GLY ASN HIS ARG ILE ARG ALA ALA VAL          
  18 A  290  PRO ALA ASP TRP ALA VAL GLY ASP LYS THR GLY THR CYS          
  19 A  290  GLY VAL TYR GLY THR ALA ASN ASP TYR ALA VAL VAL TRP          
  20 A  290  PRO THR GLY ARG ALA PRO ILE VAL LEU ALA VAL TYR THR          
  21 A  290  ARG ALA PRO ASN LYS ASP ASP LYS HIS SER GLU ALA VAL          
  22 A  290  ILE ALA ALA ALA ALA ARG LEU ALA LEU GLU GLY LEU GLY          
  23 A  290  VAL ASN GLY GLN                                              

>  <HET>  (1) 
 GOL  A 401      28                                                       
 O2F  A 402      52                                                       
 SO4  A 403       5                                                       
 SO4  A 404       5                                                       
 SO4  A 405       5                                                       
 SO4  A 406       5                                                       

>  <HETNAM>  (1) 
     GOL GLYCEROL                                                         
     O2F (2S,3R,4R)-4-[(3S,5S)-5-(DIMETHYLCARBAMOYL)PYRROLIDIN-           
   2 O2F  3-YL]SULFANYL-3-METHYL-2-[(2S,3R)-3-OXIDANYL-1-                 
   3 O2F  OXIDANYLIDENE-BUTAN-2-YL]-3,4-DIHYDRO-2H-PYRROLE-5-             
   4 O2F  CARBOXYLIC ACID                                                 
     SO4 SULFATE ION                                                      

>  <HETSYN>  (1) 
     GOL GLYCERIN; PROPANE-1,2,3-TRIOL                                    
     O2F MEROPENEM, BOUND FORM                                            

>  <FORMUL>  (1) 
   2  GOL    C3 H8 O3                                                     
   3  O2F    C17 H27 N3 O5 S                                              
   4  SO4    4(O4 S 2-)                                                   
   8  HOH   *293(H2 O)                                                    

>  <HELIX>  (1) 
   1 AA1 PRO A   32  GLY A   41  1                                  10    
   2 AA2 SER A   71  GLN A   85  1                                  15    
   3 AA3 GLY A   98  LEU A  102  5                                   5    
   4 AA4 ILE A  108  LEU A  113  5                                   6    
   5 AA5 VAL A  119  TYR A  129  1                                  11    
   6 AA6 ASP A  131  LEU A  142  1                                  12    
   7 AA7 GLY A  143  ILE A  155  1                                  13    
   8 AA8 SER A  182  LEU A  195  1                                  14    
   9 AA9 ALA A  200  GLY A  213  1                                  14    
  10 AB1 ARG A  220  VAL A  225  5                                   6    
  11 AB2 SER A  275  LEU A  290  1                                  16    

>  <SHEET>  (1) 
   1 AA1 5 THR A  56  TYR A  60  0                                        
   2 AA1 5 SER A  43  ASP A  50 -1  N  VAL A  46   O  TYR A  60           
   3 AA1 5 ILE A 259  ARG A 266 -1  O  TYR A 264   N  GLY A  45           
   4 AA1 5 ALA A 244  TRP A 251 -1  N  VAL A 250   O  ILE A 259           
   5 AA1 5 ALA A 230  THR A 237 -1  N  ALA A 230   O  TRP A 251           
   1 AA2 2 PHE A  66  PRO A  67  0                                        
   2 AA2 2 THR A 180  SER A 181 -1  O  SER A 181   N  PHE A  66           
   1 AA3 2 PRO A  94  ILE A  95  0                                        
   2 AA3 2 MET A 117  THR A 118 -1  O  MET A 117   N  ILE A  95           

>  <SSBOND>  (1) 
   1 CYS A   69    CYS A  238                          1555   1555  2.05  

>  <LINK>  (1) 
       OG  SER A  70                 C12 O2F A 402     1555   1555  1.35  

>  <ORIGX1>  (1) 
      1.000000  0.000000  0.000000        0.00000                         

>  <ORIGX2>  (1) 
      0.000000  1.000000  0.000000        0.00000                         

>  <ORIGX3>  (1) 
      0.000000  0.000000  1.000000        0.00000                         

>  <SCALE1>  (1) 
      0.016512  0.000000  0.000000        0.00000                         

>  <SCALE2>  (1) 
      0.000000  0.012625  0.000000        0.00000                         

>  <SCALE3>  (1) 
      0.000000  0.000000  0.017776        0.00000                         

>  <ANISOU>  (1) 
  704  N   SER A  70      781   2683    738     46    -86    -32       N  
  705  CA  SER A  70      841   2774    780   -126   -110     51       C  
  706  C   SER A  70      769   2640    860   -128   -136    -43       C  
  707  O   SER A  70      800   2668   1050    -46   -223    -54       O  
  708  CB  SER A  70      922   2910    936   -239   -179    319       C  
  709  OG  SER A  70     1417   3242   1054    -93   -317    226       O  
 4203  C1  O2F A 402     5504   6065   5924    538     36   2704       C  
 4204  C2  O2F A 402     6688   4271   5681    -86  -1421   -453       C  
 4205  C3  O2F A 402     4283   5326   5128   2331  -1545    696       C  
 4206  C4  O2F A 402     4062   5100   4489   1682  -1384    163       C  
 4207  C5  O2F A 402     2151   5916   4740    128  -1940   -138       C  
 4208  C7  O2F A 402     1443   4089   1269    100   -844   -212       C  
 4209  C9  O2F A 402     3620   4215   1293   1163   1259     12       C  
 4210  C11 O2F A 402      916   3612   1564   -421   -167     39       C  
 4211  C15 O2F A 402     1792   3290   2487     66   -291    300       C  
 4212  C16 O2F A 402     1869   3435   2969    302   -795    361       C  
 4213  N   O2F A 402     4870   7567   8310  -1500   -629    347       N  
 4214  C   O2F A 402     4514   8098   8044   2060  -1197   2602       C  
 4215  O   O2F A 402     7432  10005  10460    -97  -5950   2311       O  
 4216  C10 O2F A 402     1125   3170   2442   -337   -717    565       C  
 4217  C12 O2F A 402     1188   3289    999    -21   -299   -200       C  
 4218  C13 O2F A 402      875   3377   1762   -158     94    378       C  
 4219  C14 O2F A 402      692   3598   2426    344   -861    -16       C  
 4220  C6  O2F A 402     2292   4775   3901   1684    162    657       C  
 4221  C8  O2F A 402     2465   3655   1374   -422    332   -217       C  
 4222  N1  O2F A 402     3608   5089   4534   1620  -1262   -410       N  
 4223  N2  O2F A 402     1299   3643   2122    184    142    166       N  
 4224  O1  O2F A 402     2227   4302   2011   -494    320    516       O  
 4225  O2  O2F A 402     2740   4949   1238    539   -299   -100       O  
 4226  O3  O2F A 402     1637   3030    918     52   -465    -93       O  
 4227  O4  O2F A 402     1975   4371   1767   -575   -306    774       O  
 4228  S   O2F A 402     1927   4338   2286   -130   -657    104       S  

>  <MASTER>  (1) 
      349    0    6   11    9    0    0    6 2351    1  103   23          

$$$$
