start_structures/Ligand_Substrate/Ligand_Complex_Stripped/0RJ_4MBH.pdb
     RDKit          3D

 12 11  0  0  1  0  0  0  0  0999 V2000
   48.7968   51.8772   46.3360 N   0  0  0  0  0  0  0  0  0  0  0  0
   47.4473   51.3815   46.5444 C   0  0  2  0  0  0  0  0  0  0  0  0
   47.4045   49.8863   46.4403 C   0  0  0  0  0  0  0  0  0  0  0  0
   46.4742   49.2679   46.9365 O   0  0  0  0  0  0  0  0  0  0  0  0
   46.5144   52.0024   45.5113 C   0  0  0  0  0  0  0  0  0  0  0  0
   46.1628   53.3348   45.8716 O   0  0  0  0  0  0  0  0  0  0  0  0
   45.2540   53.6176   46.8940 C   0  0  0  0  0  0  0  0  0  0  0  0
   44.6787   52.6894   47.5237 O   0  0  0  0  0  0  0  0  0  0  0  0
   44.9817   55.0352   47.2632 C   0  0  0  0  0  0  0  0  0  0  0  0
   46.0762   55.5717   48.1272 C   0  0  0  0  0  0  0  0  0  0  0  0
   46.2328   55.1388   49.3234 N   0  0  0  0  0  0  0  0  0  0  0  0
   47.2896   55.6612   50.1435 C   0  0  0  0  0  0  0  0  0  0  0  0
  2  3  1  0
  2  1  1  6
  4  3  2  0
  5  2  1  0
  6  7  1  0
  6  5  1  0
  7  8  2  0
  7  9  1  0
  9 10  1  0
 10 11  2  0
 11 12  1  0
M  END
>  <HEADER>  (1) 
    HYDROLASE                               19-AUG-13   4MBH              

>  <TITLE>  (1) 
    PENAM SULFONE PSR-3-226 BOUND TO E166A VARIANT OF SHV-1 BETA-LACTAMASE

>  <COMPND>  (1) 
    MOL_ID: 1;                                                            
   2 MOLECULE: BETA-LACTAMASE SHV-1;                                      
   3 CHAIN: A;                                                            
   4 FRAGMENT: SHV-1 BETA-LACTAMASE;                                      
   5 SYNONYM: PIT-2;                                                      
   6 EC: 3.5.2.6;                                                         
   7 ENGINEERED: YES;                                                     
   8 MUTATION: YES                                                        

>  <SOURCE>  (1) 
    MOL_ID: 1;                                                            
   2 ORGANISM_SCIENTIFIC: KLEBSIELLA PNEUMONIAE;                          
   3 ORGANISM_TAXID: 573;                                                 
   4 GENE: BLA, SHV1;                                                     
   5 EXPRESSION_SYSTEM: ESCHERICHIA COLI;                                 
   6 EXPRESSION_SYSTEM_TAXID: 562                                         

>  <KEYWDS>  (1) 
    CLASS A BETA-LACTAMASE, HYDROLASE                                     

>  <EXPDTA>  (1) 
    X-RAY DIFFRACTION                                                     

>  <AUTHOR>  (1) 
    E.A.RODKEY,F.VAN DEN AKKER                                            

>  <REVDAT>  (1) 
   2   15-NOV-17 4MBH    1       REMARK                                   
   1   30-JUL-14 4MBH    0                                                

>  <JRNL>  (1) 
      AUTH   E.A.RODKEY,M.L.WINKLER,C.R.BETHEL,S.R.PAGADALA,J.D.BUYNAK,   
      AUTH 2 R.A.BONOMO,F.VAN DEN AKKER                                   
      TITL   PENAM SULFONES AND BETA-LACTAMASE INHIBITION: SA2-13 AND THE 
      TITL 2 IMPORTANCE OF THE C2 SIDE CHAIN LENGTH AND COMPOSITION.      
      REF    PLOS ONE                      V.   9 85892 2014              
      REFN                   ESSN 1932-6203                               
      PMID   24454944                                                     
      DOI    10.1371/JOURNAL.PONE.0085892                                 

>  <REMARK>  (1) 
   2                                                                      
   2 RESOLUTION.    1.22 ANGSTROMS.                                       
   3                                                                      
   3 REFINEMENT.                                                          
   3   PROGRAM     : REFMAC 5.5.0088                                      
   3   AUTHORS     : MURSHUDOV,VAGIN,DODSON                               
   3                                                                      
   3    REFINEMENT TARGET : MAXIMUM LIKELIHOOD                            
   3                                                                      
   3  DATA USED IN REFINEMENT.                                            
   3   RESOLUTION RANGE HIGH (ANGSTROMS) : 1.22                           
   3   RESOLUTION RANGE LOW  (ANGSTROMS) : 24.34                          
   3   DATA CUTOFF            (SIGMA(F)) : NULL                           
   3   COMPLETENESS FOR RANGE        (%) : 99.6                           
   3   NUMBER OF REFLECTIONS             : 65684                          
   3                                                                      
   3  FIT TO DATA USED IN REFINEMENT.                                     
   3   CROSS-VALIDATION METHOD          : THROUGHOUT                      
   3   FREE R VALUE TEST SET SELECTION  : RANDOM                          
   3   R VALUE     (WORKING + TEST SET) : 0.138                           
   3   R VALUE            (WORKING SET) : 0.137                           
   3   FREE R VALUE                     : 0.161                           
   3   FREE R VALUE TEST SET SIZE   (%) : 5.100                           
   3   FREE R VALUE TEST SET COUNT      : 3494                            
   3                                                                      
   3  FIT IN THE HIGHEST RESOLUTION BIN.                                  
   3   TOTAL NUMBER OF BINS USED           : 20                           
   3   BIN RESOLUTION RANGE HIGH       (A) : 1.22                         
   3   BIN RESOLUTION RANGE LOW        (A) : 1.25                         
   3   REFLECTION IN BIN     (WORKING SET) : 4668                         
   3   BIN COMPLETENESS (WORKING+TEST) (%) : 98.07                        
   3   BIN R VALUE           (WORKING SET) : 0.1630                       
   3   BIN FREE R VALUE SET COUNT          : 268                          
   3   BIN FREE R VALUE                    : 0.1920                       
   3                                                                      
   3  NUMBER OF NON-HYDROGEN ATOMS USED IN REFINEMENT.                    
   3   PROTEIN ATOMS            : 2020                                    
   3   NUCLEIC ACID ATOMS       : 0                                       
   3   HETEROGEN ATOMS          : 56                                      
   3   SOLVENT ATOMS            : 259                                     
   3                                                                      
   3  B VALUES.                                                           
   3   FROM WILSON PLOT           (A**2) : NULL                           
   3   MEAN B VALUE      (OVERALL, A**2) : 12.30                          
   3   OVERALL ANISOTROPIC B VALUE.                                       
   3    B11 (A**2) : -0.02000                                             
   3    B22 (A**2) : -0.01000                                             
   3    B33 (A**2) : 0.03000                                              
   3    B12 (A**2) : 0.00000                                              
   3    B13 (A**2) : 0.00000                                              
   3    B23 (A**2) : 0.00000                                              
   3                                                                      
   3  ESTIMATED OVERALL COORDINATE ERROR.                                 
   3   ESU BASED ON R VALUE                            (A): 0.041         
   3   ESU BASED ON FREE R VALUE                       (A): 0.039         
   3   ESU BASED ON MAXIMUM LIKELIHOOD                 (A): 0.019         
   3   ESU FOR B VALUES BASED ON MAXIMUM LIKELIHOOD (A**2): 0.918         
   3                                                                      
   3 CORRELATION COEFFICIENTS.                                            
   3   CORRELATION COEFFICIENT FO-FC      : 0.974                         
   3   CORRELATION COEFFICIENT FO-FC FREE : 0.965                         
   3                                                                      
   3  RMS DEVIATIONS FROM IDEAL VALUES        COUNT    RMS    WEIGHT      
   3   BOND LENGTHS REFINED ATOMS        (A):  2280 ; 0.013 ; 0.022       
   3   BOND LENGTHS OTHERS               (A):  NULL ;  NULL ;  NULL       
   3   BOND ANGLES REFINED ATOMS   (DEGREES):  3104 ; 1.699 ; 2.009       
   3   BOND ANGLES OTHERS          (DEGREES):  NULL ;  NULL ;  NULL       
   3   TORSION ANGLES, PERIOD 1    (DEGREES):   284 ; 6.368 ; 5.000       
   3   TORSION ANGLES, PERIOD 2    (DEGREES):    96 ;36.623 ;23.125       
   3   TORSION ANGLES, PERIOD 3    (DEGREES):   394 ;12.462 ;15.000       
   3   TORSION ANGLES, PERIOD 4    (DEGREES):    25 ;18.227 ;15.000       
   3   CHIRAL-CENTER RESTRAINTS       (A**3):   374 ; 0.117 ; 0.200       
   3   GENERAL PLANES REFINED ATOMS      (A):  1651 ; 0.010 ; 0.021       
   3   GENERAL PLANES OTHERS             (A):  NULL ;  NULL ;  NULL       
   3   NON-BONDED CONTACTS REFINED ATOMS (A):  NULL ;  NULL ;  NULL       
   3   NON-BONDED CONTACTS OTHERS        (A):  NULL ;  NULL ;  NULL       
   3   NON-BONDED TORSION REFINED ATOMS  (A):  NULL ;  NULL ;  NULL       
   3   NON-BONDED TORSION OTHERS         (A):  NULL ;  NULL ;  NULL       
   3   H-BOND (X...Y) REFINED ATOMS      (A):  NULL ;  NULL ;  NULL       
   3   H-BOND (X...Y) OTHERS             (A):  NULL ;  NULL ;  NULL       
   3   POTENTIAL METAL-ION REFINED ATOMS (A):  NULL ;  NULL ;  NULL       
   3   POTENTIAL METAL-ION OTHERS        (A):  NULL ;  NULL ;  NULL       
   3   SYMMETRY VDW REFINED ATOMS        (A):  NULL ;  NULL ;  NULL       
   3   SYMMETRY VDW OTHERS               (A):  NULL ;  NULL ;  NULL       
   3   SYMMETRY H-BOND REFINED ATOMS     (A):  NULL ;  NULL ;  NULL       
   3   SYMMETRY H-BOND OTHERS            (A):  NULL ;  NULL ;  NULL       
   3   SYMMETRY METAL-ION REFINED ATOMS  (A):  NULL ;  NULL ;  NULL       
   3   SYMMETRY METAL-ION OTHERS         (A):  NULL ;  NULL ;  NULL       
   3                                                                      
   3  ISOTROPIC THERMAL FACTOR RESTRAINTS.     COUNT   RMS    WEIGHT      
   3   MAIN-CHAIN BOND REFINED ATOMS  (A**2):  1386 ; 1.465 ; 1.500       
   3   MAIN-CHAIN BOND OTHER ATOMS    (A**2):  NULL ;  NULL ;  NULL       
   3   MAIN-CHAIN ANGLE REFINED ATOMS (A**2):  2246 ; 2.177 ; 2.000       
   3   MAIN-CHAIN ANGLE OTHER ATOMS   (A**2):  NULL ;  NULL ;  NULL       
   3   SIDE-CHAIN BOND REFINED ATOMS  (A**2):   894 ; 2.950 ; 3.000       
   3   SIDE-CHAIN BOND OTHER ATOMS    (A**2):  NULL ;  NULL ;  NULL       
   3   SIDE-CHAIN ANGLE REFINED ATOMS (A**2):   857 ; 4.313 ; 4.500       
   3   SIDE-CHAIN ANGLE OTHER ATOMS   (A**2):  NULL ;  NULL ;  NULL       
   3   LONG RANGE B REFINED ATOMS     (A**2):  NULL ;  NULL ;  NULL       
   3   LONG RANGE B OTHER ATOMS       (A**2):  NULL ;  NULL ;  NULL       
   3                                                                      
   3 ANISOTROPIC THERMAL FACTOR RESTRAINTS.    COUNT   RMS   WEIGHT       
   3   RIGID-BOND RESTRAINTS          (A**2):  2280 ; 1.580 ; 3.000       
   3   SPHERICITY; FREE ATOMS         (A**2):   259 ; 7.873 ; 3.000       
   3   SPHERICITY; BONDED ATOMS       (A**2):  2235 ; 4.379 ; 3.000       
   3                                                                      
   3  NCS RESTRAINTS STATISTICS                                           
   3   NUMBER OF DIFFERENT NCS GROUPS : NULL                              
   3                                                                      
   3  TLS DETAILS                                                         
   3   NUMBER OF TLS GROUPS  : NULL                                       
   3                                                                      
   3  BULK SOLVENT MODELLING.                                             
   3   METHOD USED : MASK                                                 
   3   PARAMETERS FOR MASK CALCULATION                                    
   3   VDW PROBE RADIUS   : 1.40                                          
   3   ION PROBE RADIUS   : 0.80                                          
   3   SHRINKAGE RADIUS   : 0.80                                          
   3                                                                      
   3  OTHER REFINEMENT REMARKS: HYDROGENS HAVE BEEN ADDED IN THE RIDING   
   3  POSITIONS                                                           
   4                                                                      
   4 4MBH COMPLIES WITH FORMAT V. 3.30, 13-JUL-11                         
 100                                                                      
 100 THIS ENTRY HAS BEEN PROCESSED BY RCSB ON 21-AUG-13.                  
 100 THE DEPOSITION ID IS D_1000081704.                                   
 200                                                                      
 200 EXPERIMENTAL DETAILS                                                 
 200  EXPERIMENT TYPE                : X-RAY DIFFRACTION                  
 200  DATE OF DATA COLLECTION        : 27-JAN-10                          
 200  TEMPERATURE           (KELVIN) : 100                                
 200  PH                             : 6.8-7.8                            
 200  NUMBER OF CRYSTALS USED        : NULL                               
 200                                                                      
 200  SYNCHROTRON              (Y/N) : Y                                  
 200  RADIATION SOURCE               : SSRL                               
 200  BEAMLINE                       : BL9-2                              
 200  X-RAY GENERATOR MODEL          : NULL                               
 200  MONOCHROMATIC OR LAUE    (M/L) : M                                  
 200  WAVELENGTH OR RANGE        (A) : 0.9795                             
 200  MONOCHROMATOR                  : DOUBLE CRYSTAL MONOCHROMATOR       
 200  OPTICS                         : NULL                               
 200                                                                      
 200  DETECTOR TYPE                  : CCD                                
 200  DETECTOR MANUFACTURER          : MARMOSAIC 325 MM CCD               
 200  INTENSITY-INTEGRATION SOFTWARE : HKL-2000                           
 200  DATA SCALING SOFTWARE          : HKL-2000                           
 200                                                                      
 200  NUMBER OF UNIQUE REFLECTIONS   : 65684                              
 200  RESOLUTION RANGE HIGH      (A) : 1.220                              
 200  RESOLUTION RANGE LOW       (A) : 24.340                             
 200  REJECTION CRITERIA  (SIGMA(I)) : 1.000                              
 200                                                                      
 200 OVERALL.                                                             
 200  COMPLETENESS FOR RANGE     (%) : 99.6                               
 200  DATA REDUNDANCY                : 3.600                              
 200  R MERGE                    (I) : 0.03900                            
 200  R SYM                      (I) : NULL                               
 200  <I/SIGMA(I)> FOR THE DATA SET  : 22.0000                            
 200                                                                      
 200 IN THE HIGHEST RESOLUTION SHELL.                                     
 200  HIGHEST RESOLUTION SHELL, RANGE HIGH (A) : 1.22                     
 200  HIGHEST RESOLUTION SHELL, RANGE LOW  (A) : 1.25                     
 200  COMPLETENESS FOR SHELL     (%) : 99.0                               
 200  DATA REDUNDANCY IN SHELL       : 3.50                               
 200  R MERGE FOR SHELL          (I) : 0.19900                            
 200  R SYM FOR SHELL            (I) : NULL                               
 200  <I/SIGMA(I)> FOR SHELL         : 6.200                              
 200                                                                      
 200 DIFFRACTION PROTOCOL: SINGLE WAVELENGTH                              
 200 METHOD USED TO DETERMINE THE STRUCTURE: FOURIER SYNTHESIS            
 200 SOFTWARE USED: NULL                                                  
 200 STARTING MODEL: NULL                                                 
 200                                                                      
 200 REMARK: NULL                                                         
 280                                                                      
 280 CRYSTAL                                                              
 280 SOLVENT CONTENT, VS   (%): 38.14                                     
 280 MATTHEWS COEFFICIENT, VM (ANGSTROMS**3/DA): 1.99                     
 280                                                                      
 280 CRYSTALLIZATION CONDITIONS: 21-30% PEG 6000, 0.1M HEPES. 0.56MM      
 280  CYMAL-6, VAPOR DIFFUSION, SITTING DROP, TEMPERATURE 293K            
 290                                                                      
 290 CRYSTALLOGRAPHIC SYMMETRY                                            
 290 SYMMETRY OPERATORS FOR SPACE GROUP: P 21 21 21                       
 290                                                                      
 290      SYMOP   SYMMETRY                                                
 290     NNNMMM   OPERATOR                                                
 290       1555   X,Y,Z                                                   
 290       2555   -X+1/2,-Y,Z+1/2                                         
 290       3555   -X,Y+1/2,-Z+1/2                                         
 290       4555   X+1/2,-Y+1/2,-Z                                         
 290                                                                      
 290     WHERE NNN -> OPERATOR NUMBER                                     
 290           MMM -> TRANSLATION VECTOR                                  
 290                                                                      
 290 CRYSTALLOGRAPHIC SYMMETRY TRANSFORMATIONS                            
 290 THE FOLLOWING TRANSFORMATIONS OPERATE ON THE ATOM/HETATM             
 290 RECORDS IN THIS ENTRY TO PRODUCE CRYSTALLOGRAPHICALLY                
 290 RELATED MOLECULES.                                                   
 290   SMTRY1   1  1.000000  0.000000  0.000000        0.00000            
 290   SMTRY2   1  0.000000  1.000000  0.000000        0.00000            
 290   SMTRY3   1  0.000000  0.000000  1.000000        0.00000            
 290   SMTRY1   2 -1.000000  0.000000  0.000000       24.76900            
 290   SMTRY2   2  0.000000 -1.000000  0.000000        0.00000            
 290   SMTRY3   2  0.000000  0.000000  1.000000       41.90950            
 290   SMTRY1   3 -1.000000  0.000000  0.000000        0.00000            
 290   SMTRY2   3  0.000000  1.000000  0.000000       27.62950            
 290   SMTRY3   3  0.000000  0.000000 -1.000000       41.90950            
 290   SMTRY1   4  1.000000  0.000000  0.000000       24.76900            
 290   SMTRY2   4  0.000000 -1.000000  0.000000       27.62950            
 290   SMTRY3   4  0.000000  0.000000 -1.000000        0.00000            
 290                                                                      
 290 REMARK: NULL                                                         
 300                                                                      
 300 BIOMOLECULE: 1                                                       
 300 SEE REMARK 350 FOR THE AUTHOR PROVIDED AND/OR PROGRAM                
 300 GENERATED ASSEMBLY INFORMATION FOR THE STRUCTURE IN                  
 300 THIS ENTRY. THE REMARK MAY ALSO PROVIDE INFORMATION ON               
 300 BURIED SURFACE AREA.                                                 
 350                                                                      
 350 COORDINATES FOR A COMPLETE MULTIMER REPRESENTING THE KNOWN           
 350 BIOLOGICALLY SIGNIFICANT OLIGOMERIZATION STATE OF THE                
 350 MOLECULE CAN BE GENERATED BY APPLYING BIOMT TRANSFORMATIONS          
 350 GIVEN BELOW.  BOTH NON-CRYSTALLOGRAPHIC AND                          
 350 CRYSTALLOGRAPHIC OPERATIONS ARE GIVEN.                               
 350                                                                      
 350 BIOMOLECULE: 1                                                       
 350 AUTHOR DETERMINED BIOLOGICAL UNIT: MONOMERIC                         
 350 SOFTWARE DETERMINED QUATERNARY STRUCTURE: MONOMERIC                  
 350 SOFTWARE USED: PISA                                                  
 350 APPLY THE FOLLOWING TO CHAINS: A                                     
 350   BIOMT1   1  1.000000  0.000000  0.000000        0.00000            
 350   BIOMT2   1  0.000000  1.000000  0.000000        0.00000            
 350   BIOMT3   1  0.000000  0.000000  1.000000        0.00000            
 500                                                                      
 500 GEOMETRY AND STEREOCHEMISTRY                                         
 500 SUBTOPIC: CLOSE CONTACTS IN SAME ASYMMETRIC UNIT                     
 500                                                                      
 500 THE FOLLOWING ATOMS ARE IN CLOSE CONTACT.                            
 500                                                                      
 500  ATM1  RES C  SSEQI   ATM2  RES C  SSEQI           DISTANCE          
 500   O    HOH A   527     O    HOH A   622              1.81            
 500   O    HOH A   561     O    HOH A   637              1.83            
 500   O    HOH A   607     O    HOH A   622              1.90            
 500   O    THR A   167     O    HOH A   620              1.94            
 500   O    HOH A   597     O    HOH A   616              2.09            
 500   O    HOH A   597     O    HOH A   636              2.15            
 500   OD1  ASN A   254     O    HOH A   602              2.15            
 500                                                                      
 500 REMARK: NULL                                                         
 500                                                                      
 500 GEOMETRY AND STEREOCHEMISTRY                                         
 500 SUBTOPIC: COVALENT BOND ANGLES                                       
 500                                                                      
 500 THE STEREOCHEMICAL PARAMETERS OF THE FOLLOWING RESIDUES              
 500 HAVE VALUES WHICH DEVIATE FROM EXPECTED VALUES BY MORE               
 500 THAN 6*RMSD (M=MODEL NUMBER; RES=RESIDUE NAME; C=CHAIN               
 500 IDENTIFIER; SSEQ=SEQUENCE NUMBER; I=INSERTION CODE).                 
 500                                                                      
 500 STANDARD TABLE:                                                      
 500 FORMAT: (10X,I3,1X,A3,1X,A1,I4,A1,3(1X,A4,2X),12X,F5.1)              
 500                                                                      
 500 EXPECTED VALUES PROTEIN: ENGH AND HUBER, 1999                        
 500 EXPECTED VALUES NUCLEIC ACID: CLOWNEY ET AL 1996                     
 500                                                                      
 500  M RES CSSEQI ATM1   ATM2   ATM3                                     
 500    ARG A 275   NE  -  CZ  -  NH1 ANGL. DEV. =   5.1 DEGREES          
 500    ARG A 275   NE  -  CZ  -  NH2 ANGL. DEV. =  -4.1 DEGREES          
 500                                                                      
 500 REMARK: NULL                                                         
 500                                                                      
 500 GEOMETRY AND STEREOCHEMISTRY                                         
 500 SUBTOPIC: TORSION ANGLES                                             
 500                                                                      
 500 TORSION ANGLES OUTSIDE THE EXPECTED RAMACHANDRAN REGIONS:            
 500 (M=MODEL NUMBER; RES=RESIDUE NAME; C=CHAIN IDENTIFIER;               
 500 SSEQ=SEQUENCE NUMBER; I=INSERTION CODE).                             
 500                                                                      
 500 STANDARD TABLE:                                                      
 500 FORMAT:(10X,I3,1X,A3,1X,A1,I4,A1,4X,F7.2,3X,F7.2)                    
 500                                                                      
 500 EXPECTED VALUES: GJ KLEYWEGT AND TA JONES (1996). PHI/PSI-           
 500 CHOLOGY: RAMACHANDRAN REVISITED. STRUCTURE 4, 1395 - 1400            
 500                                                                      
 500  M RES CSSEQI        PSI       PHI                                   
 500    LEU A  57      -92.11    -90.19                                   
 500    MET A  69     -145.99     54.29                                   
 500    TYR A 105       87.90     75.25                                   
 500                                                                      
 500 REMARK: NULL                                                         
 610                                                                      
 610 MISSING HETEROATOM                                                   
 610 THE FOLLOWING RESIDUES HAVE MISSING ATOMS (M=MODEL NUMBER;           
 610 RES=RESIDUE NAME; C=CHAIN IDENTIFIER; SSEQ=SEQUENCE NUMBER;          
 610 I=INSERTION CODE):                                                   
 610   M RES C SSEQI                                                      
 610     MA4 A  302                                                       
 610     0RJ A  303                                                       
 610     EPE A  304                                                       
 800                                                                      
 800 SITE                                                                 
 800 SITE_IDENTIFIER: AC1                                                 
 800 EVIDENCE_CODE: SOFTWARE                                              
 800 SITE_DESCRIPTION: BINDING SITE FOR RESIDUE MA4 A 301                 
 800                                                                      
 800 SITE_IDENTIFIER: AC2                                                 
 800 EVIDENCE_CODE: SOFTWARE                                              
 800 SITE_DESCRIPTION: BINDING SITE FOR RESIDUE MA4 A 302                 
 800                                                                      
 800 SITE_IDENTIFIER: AC3                                                 
 800 EVIDENCE_CODE: SOFTWARE                                              
 800 SITE_DESCRIPTION: BINDING SITE FOR RESIDUE 0RJ A 303                 
 800                                                                      
 800 SITE_IDENTIFIER: AC4                                                 
 800 EVIDENCE_CODE: SOFTWARE                                              
 800 SITE_DESCRIPTION: BINDING SITE FOR RESIDUE EPE A 304                 
 900                                                                      
 900 RELATED ENTRIES                                                      
 900 RELATED ID: 3RXW   RELATED DB: PDB                                   
 900 PSR-3-226 IN COMPLEX WITH KPC-2 BETA-LACTAMASE                       
 900 RELATED ID: 4MBF   RELATED DB: PDB                                   
 900 RELATED ID: 4MBK   RELATED DB: PDB                                   

>  <DBREF>  (1) 
 4MBH A   26   292  UNP    P0AD64   BLA1_KLEPN      22    286             

>  <SEQADV>  (1) 
 4MBH ALA A  166  UNP  P0AD64    GLU   162 ENGINEERED MUTATION            

>  <SEQRES>  (1) 
   1 A  265  SER PRO GLN PRO LEU GLU GLN ILE LYS LEU SER GLU SER          
   2 A  265  GLN LEU SER GLY ARG VAL GLY MET ILE GLU MET ASP LEU          
   3 A  265  ALA SER GLY ARG THR LEU THR ALA TRP ARG ALA ASP GLU          
   4 A  265  ARG PHE PRO MET MET SER THR PHE LYS VAL VAL LEU CYS          
   5 A  265  GLY ALA VAL LEU ALA ARG VAL ASP ALA GLY ASP GLU GLN          
   6 A  265  LEU GLU ARG LYS ILE HIS TYR ARG GLN GLN ASP LEU VAL          
   7 A  265  ASP TYR SER PRO VAL SER GLU LYS HIS LEU ALA ASP GLY          
   8 A  265  MET THR VAL GLY GLU LEU CYS ALA ALA ALA ILE THR MET          
   9 A  265  SER ASP ASN SER ALA ALA ASN LEU LEU LEU ALA THR VAL          
  10 A  265  GLY GLY PRO ALA GLY LEU THR ALA PHE LEU ARG GLN ILE          
  11 A  265  GLY ASP ASN VAL THR ARG LEU ASP ARG TRP ALA THR GLU          
  12 A  265  LEU ASN GLU ALA LEU PRO GLY ASP ALA ARG ASP THR THR          
  13 A  265  THR PRO ALA SER MET ALA ALA THR LEU ARG LYS LEU LEU          
  14 A  265  THR SER GLN ARG LEU SER ALA ARG SER GLN ARG GLN LEU          
  15 A  265  LEU GLN TRP MET VAL ASP ASP ARG VAL ALA GLY PRO LEU          
  16 A  265  ILE ARG SER VAL LEU PRO ALA GLY TRP PHE ILE ALA ASP          
  17 A  265  LYS THR GLY ALA GLY GLU ARG GLY ALA ARG GLY ILE VAL          
  18 A  265  ALA LEU LEU GLY PRO ASN ASN LYS ALA GLU ARG ILE VAL          
  19 A  265  VAL ILE TYR LEU ARG ASP THR PRO ALA SER MET ALA GLU          
  20 A  265  ARG ASN GLN GLN ILE ALA GLY ILE GLY ALA ALA LEU ILE          
  21 A  265  GLU HIS TRP GLN ARG                                          

>  <HET>  (1) 
 MA4  A 301      70                                                       
 MA4  A 302       8                                                       
 0RJ  A 303       6                                                       
 EPE  A 304       7                                                       

>  <HETNAM>  (1) 
     MA4 CYCLOHEXYL-HEXYL-BETA-D-MALTOSIDE                                
     0RJ 3-(FORMYLAMINO)-L-ALANINE                                        
     EPE 4-(2-HYDROXYETHYL)-1-PIPERAZINE ETHANESULFONIC ACID              

>  <HETSYN>  (1) 
     EPE HEPES                                                            

>  <FORMUL>  (1) 
   2  MA4    2(C24 H44 O11)                                               
   4  0RJ    C4 H8 N2 O3                                                  
   5  EPE    C8 H18 N2 O4 S                                               
   6  HOH   *259(H2 O)                                                    

>  <HELIX>  (1) 
   1   1 GLN A   28  SER A   41  1                                  14    
   2   2 THR A   71  ALA A   86  1                                  16    
   3   3 ARG A   98  LEU A  102  5                                   5    
   4   4 VAL A  108  LEU A  113  5                                   6    
   5   5 VAL A  119  SER A  130  1                                  12    
   6   6 ASP A  131  VAL A  142  1                                  12    
   7   7 GLY A  143  ILE A  155  1                                  13    
   8   8 THR A  182  SER A  196  1                                  15    
   9   9 SER A  200  ASP A  213  1                                  14    
  10  10 ALA A  217  LEU A  225  1                                   9    
  11  11 SER A  271  HIS A  289  1                                  19    

>  <SHEET>  (1) 
   1   A 5 THR A  56  TRP A  60  0                                        
   2   A 5 ARG A  43  ASP A  50 -1  N  GLU A  48   O  LEU A  57           
   3   A 5 ARG A 259  ARG A 266 -1  O  ILE A 260   N  MET A  49           
   4   A 5 ARG A 244  GLY A 251 -1  N  ARG A 244   O  LEU A 265           
   5   A 5 PHE A 230  ALA A 237 -1  N  PHE A 230   O  GLY A 251           
   1   B 2 PHE A  66  PRO A  67  0                                        
   2   B 2 THR A 180  THR A 181 -1  O  THR A 181   N  PHE A  66           
   1   C 2 LYS A  94  ILE A  95  0                                        
   2   C 2 MET A 117  THR A 118 -1  O  MET A 117   N  ILE A  95           

>  <SSBOND>  (1) 
   1 CYS A   77    CYS A  123                          1555   1555  2.07  

>  <LINK>  (1) 
       OG  SER A  70                 C   0RJ A 303     1555   1555  1.39  

>  <SITE>  (1) 
   1 AC1 21 ARG A  93  LYS A  94  ILE A  95  HIS A  96                    
   2 AC1 21 ARG A  98  VAL A 224  LEU A 225  PRO A 226                    
   3 AC1 21 ILE A 231  ALA A 248  ILE A 263  ILE A 279                    
   4 AC1 21 ALA A 280  ALA A 284  GLU A 288  HOH A 401                    
   5 AC1 21 HOH A 472  HOH A 475  HOH A 529  HOH A 583                    
   6 AC1 21 HOH A 586                                                     
   1 AC2  2 ARG A 244  ILE A 279                                          
   1 AC3  6 MET A  69  SER A  70  ASN A 170  GLY A 236                    
   2 AC3  6 ALA A 237  EPE A 304                                          
   1 AC4  8 SER A  70  SER A 130  VAL A 216  LYS A 234                    
   2 AC4  8 THR A 235  GLY A 236  ARG A 244  0RJ A 303                    

>  <ORIGX1>  (1) 
      1.000000  0.000000  0.000000        0.00000                         

>  <ORIGX2>  (1) 
      0.000000  1.000000  0.000000        0.00000                         

>  <ORIGX3>  (1) 
      0.000000  0.000000  1.000000        0.00000                         

>  <SCALE1>  (1) 
      0.020187  0.000000  0.000000        0.00000                         

>  <SCALE2>  (1) 
      0.000000  0.018097  0.000000        0.00000                         

>  <SCALE3>  (1) 
      0.000000  0.000000  0.011930        0.00000                         

>  <ANISOU>  (1) 
  398  N   SER A  70     1032   1054    944      5     16   -164       N  
  399  CA  SER A  70     1113   1031    971     36    -65   -134       C  
  400  C   SER A  70      960    924    809    -67     12    -34       C  
  401  O   SER A  70     1032   1067    991    -63   -172   -168       O  
  402  CB  SER A  70     1169   1155    966    158    -61    -97       C  
  403  OG  SER A  70     1434   1511   1165    224   -274     56       O  
 2224  C   0RJ A 303     1815   1754   1973   -163   -176     39       C  
 2225  O   0RJ A 303     1835   1657   1670   -552   -203    234       O  
 2226  CA  0RJ A 303     2455   2154   2572    -66   -273    119       C  
 2227  CB  0RJ A 303     2860   2424   2781   -128   -229    225       C  
 2228  NG  0RJ A 303     3017   2437   3119   -108   -202    193       N  
 2229  CD  0RJ A 303     3126   2680   3315   -183   -194    110       C  

>  <MASTER>  (1) 
      323    0    4   11    9    0   11    6 2335    1   94   21          

$$$$
