start_structures/Ligand_Substrate/Ligand_Complex_Stripped/C9D_6B1X.pdb
     RDKit          3D

 31 32  0  0  1  0  0  0  0  0999 V2000
   48.7969   51.8771   46.3359 N   0  0  0  0  0  0  0  0  0  0  0  0
   47.4473   51.3815   46.5444 C   0  0  2  0  0  0  0  0  0  0  0  0
   47.4044   49.8864   46.4403 C   0  0  0  0  0  0  0  0  0  0  0  0
   46.4741   49.2679   46.9364 O   0  0  0  0  0  0  0  0  0  0  0  0
   46.5147   52.0024   45.5113 C   0  0  0  0  0  0  0  0  0  0  0  0
   46.1626   53.3346   45.8716 O   0  0  0  0  0  0  0  0  0  0  0  0
   47.6033   60.2960   44.5411 O   0  0  0  0  0  0  0  0  0  0  0  0
   47.9709   59.0490   45.6400 S   0  0  0  0  0  0  0  0  0  0  0  0
   48.3828   57.6340   44.7880 O   0  0  0  0  0  0  0  0  0  0  0  0
   49.2909   59.5246   46.6021 O   0  0  0  0  0  0  0  0  0  0  0  0
   46.6278   58.7485   46.6447 O   0  0  0  0  0  0  0  0  0  0  0  0
   45.6333   58.3815   45.7968 N   0  0  0  0  0  0  0  0  0  0  0  0
   44.8752   57.2962   46.4123 C   0  0  2  0  0  0  0  0  0  0  0  0
   44.1789   57.7635   47.7014 C   0  0  0  0  0  0  0  0  0  0  0  0
   44.2205   56.7309   48.8342 C   0  0  0  0  0  0  0  0  0  0  0  0
   45.7396   56.0476   46.5949 C   0  0  0  0  0  0  0  0  0  0  0  0
   44.9628   54.9839   47.2316 N   0  0  0  0  0  0  0  0  0  0  0  0
   45.2489   53.6196   46.8919 C   0  0  0  0  0  0  0  0  0  0  0  0
   44.6747   52.6799   47.5091 O   0  0  0  0  0  0  0  0  0  0  0  0
   44.0354   55.2953   48.3298 C   0  0  2  0  0  0  0  0  0  0  0  0
   42.6136   55.0409   47.9309 C   0  0  0  0  0  0  0  0  0  0  0  0
   42.1826   55.4505   46.8190 O   0  0  0  0  0  0  0  0  0  0  0  0
   41.7648   54.3032   48.8155 N   0  0  0  0  0  0  0  0  0  0  0  0
   40.3666   54.2271   48.6856 N   0  0  0  0  0  0  0  0  0  0  0  0
   39.5434   55.2997   48.2083 C   0  0  0  0  0  0  0  0  0  0  0  0
   39.9941   56.4739   48.1440 O   0  0  0  0  0  0  0  0  0  0  0  0
   38.1178   55.0479   47.8429 C   0  0  2  0  0  0  0  0  0  0  0  0
   37.3425   54.5362   49.0269 C   0  0  0  0  0  0  0  0  0  0  0  0
   36.4303   53.4893   48.4399 C   0  0  0  0  0  0  0  0  0  0  0  0
   37.0977   52.9340   47.2715 N   0  0  0  0  0  0  0  0  0  0  0  0
   38.0081   53.9655   46.7860 C   0  0  0  0  0  0  0  0  0  0  0  0
  2  1  1  6
  3  2  1  0
  3  4  2  0
  5  6  1  0
  5  2  1  0
  6 18  1  0
  7  8  1  0
  8  9  1  0
  8 10  1  0
  8 11  1  0
 11 12  1  0
 13 12  1  1
 13 14  1  0
 13 16  1  0
 14 15  1  0
 15 20  1  0
 16 17  1  0
 17 18  1  0
 17 20  1  0
 18 19  2  0
 20 21  1  6
 21 22  2  0
 21 23  1  0
 23 24  1  0
 24 25  1  0
 25 26  2  0
 27 25  1  1
 27 28  1  0
 27 31  1  0
 28 29  1  0
 29 30  1  0
 30 31  1  0
M  END
>  <HEADER>  (1) 
    HYDROLASE/HYDROLASE INHIBITOR           19-SEP-17   6B1X              

>  <TITLE>  (1) 
    CRYSTAL STRUCTURE KPC-2 BETA-LACTAMASE COMPLEXED WITH WCK 5153 BY     
   2 SOAKING                                                              

>  <CAVEAT>  (1) 
     6B1X    THR A 93 HAS WRONG CHIRALITY AT ATOM CB                      

>  <COMPND>  (1) 
    MOL_ID: 1;                                                            
   2 MOLECULE: CARBAPENEM-HYDROLYZING BETA-LACTAMASE KPC;                 
   3 CHAIN: A, B;                                                         
   4 SYNONYM: CARBAPENEM-HYDROLYZING BETA-LACTAMASE KPC-1;                
   5 EC: 3.5.2.6;                                                         
   6 ENGINEERED: YES                                                      

>  <SOURCE>  (1) 
    MOL_ID: 1;                                                            
   2 ORGANISM_SCIENTIFIC: KLEBSIELLA PNEUMONIAE;                          
   3 ORGANISM_TAXID: 573;                                                 
   4 GENE: BLA, KPC, KPC1;                                                
   5 EXPRESSION_SYSTEM: ESCHERICHIA COLI;                                 
   6 EXPRESSION_SYSTEM_TAXID: 562                                         

>  <KEYWDS>  (1) 
    INHIBITOR, COMPLEX, HYDROLASE, HYDROLASE-HYDROLASE INHIBITOR COMPLEX  

>  <EXPDTA>  (1) 
    X-RAY DIFFRACTION                                                     

>  <AUTHOR>  (1) 
    F.VAN DEN AKKER,N.Q.NGUYEN                                            

>  <REVDAT>  (1) 
   1   01-AUG-18 6B1X    0                                                

>  <JRNL>  (1) 
      AUTH   K.M.PAPP-WALLACE,N.Q.NGUYEN,M.R.JACOBS,C.R.BETHEL,           
      AUTH 2 M.D.BARNES,V.KUMAR,S.BAJAKSOUZIAN,S.D.RUDIN,P.N.RATHER,      
      AUTH 3 S.BHAVSAR,T.RAVIKUMAR,P.K.DESHPANDE,V.PATIL,R.YEOLE,         
      AUTH 4 S.S.BHAGWAT,M.V.PATEL,F.VAN DEN AKKER,R.A.BONOMO             
      TITL   STRATEGIC APPROACHES TO OVERCOME RESISTANCE AGAINST          
      TITL 2 GRAM-NEGATIVE PATHOGENS USING BETA-LACTAMASE INHIBITORS AND  
      TITL 3 BETA-LACTAM ENHANCERS: ACTIVITY OF THREE NOVEL               
      TITL 4 DIAZABICYCLOOCTANES WCK 5153, ZIDEBACTAM (WCK 5107), AND WCK 
      TITL 5 4234.                                                        
      REF    J. MED. CHEM.                 V.  61  4067 2018              
      REFN                   ISSN 1520-4804                               
      PMID   29627985                                                     
      DOI    10.1021/ACS.JMEDCHEM.8B00091                                 

>  <REMARK>  (1) 
   2                                                                      
   2 RESOLUTION.    1.45 ANGSTROMS.                                       
   3                                                                      
   3 REFINEMENT.                                                          
   3   PROGRAM     : REFMAC 5.8.0135                                      
   3   AUTHORS     : MURSHUDOV,SKUBAK,LEBEDEV,PANNU,STEINER,              
   3               : NICHOLLS,WINN,LONG,VAGIN                             
   3                                                                      
   3    REFINEMENT TARGET : NULL                                          
   3                                                                      
   3  DATA USED IN REFINEMENT.                                            
   3   RESOLUTION RANGE HIGH (ANGSTROMS) : 1.45                           
   3   RESOLUTION RANGE LOW  (ANGSTROMS) : 34.46                          
   3   DATA CUTOFF            (SIGMA(F)) : 0.000                          
   3   COMPLETENESS FOR RANGE        (%) : 92.6                           
   3   NUMBER OF REFLECTIONS             : 63748                          
   3                                                                      
   3  FIT TO DATA USED IN REFINEMENT.                                     
   3   CROSS-VALIDATION METHOD          : THROUGHOUT                      
   3   FREE R VALUE TEST SET SELECTION  : RANDOM                          
   3   R VALUE     (WORKING + TEST SET) : 0.147                           
   3   R VALUE            (WORKING SET) : 0.145                           
   3   FREE R VALUE                     : 0.169                           
   3   FREE R VALUE TEST SET SIZE   (%) : 5.000                           
   3   FREE R VALUE TEST SET COUNT      : 3375                            
   3                                                                      
   3  FIT IN THE HIGHEST RESOLUTION BIN.                                  
   3   TOTAL NUMBER OF BINS USED           : 20                           
   3   BIN RESOLUTION RANGE HIGH       (A) : 1.45                         
   3   BIN RESOLUTION RANGE LOW        (A) : 1.49                         
   3   REFLECTION IN BIN     (WORKING SET) : 3474                         
   3   BIN COMPLETENESS (WORKING+TEST) (%) : 67.87                        
   3   BIN R VALUE           (WORKING SET) : 0.1890                       
   3   BIN FREE R VALUE SET COUNT          : 164                          
   3   BIN FREE R VALUE                    : 0.2360                       
   3                                                                      
   3  NUMBER OF NON-HYDROGEN ATOMS USED IN REFINEMENT.                    
   3   PROTEIN ATOMS            : 3977                                    
   3   NUCLEIC ACID ATOMS       : 0                                       
   3   HETEROGEN ATOMS          : 108                                     
   3   SOLVENT ATOMS            : 480                                     
   3                                                                      
   3  B VALUES.                                                           
   3   FROM WILSON PLOT           (A**2) : NULL                           
   3   MEAN B VALUE      (OVERALL, A**2) : 10.92                          
   3   OVERALL ANISOTROPIC B VALUE.                                       
   3    B11 (A**2) : 0.00000                                              
   3    B22 (A**2) : 0.00000                                              
   3    B33 (A**2) : 0.00000                                              
   3    B12 (A**2) : 0.00000                                              
   3    B13 (A**2) : 0.00000                                              
   3    B23 (A**2) : 0.00000                                              
   3                                                                      
   3  ESTIMATED OVERALL COORDINATE ERROR.                                 
   3   ESU BASED ON R VALUE                            (A): 0.071         
   3   ESU BASED ON FREE R VALUE                       (A): 0.069         
   3   ESU BASED ON MAXIMUM LIKELIHOOD                 (A): 0.042         
   3   ESU FOR B VALUES BASED ON MAXIMUM LIKELIHOOD (A**2): 1.076         
   3                                                                      
   3 CORRELATION COEFFICIENTS.                                            
   3   CORRELATION COEFFICIENT FO-FC      : 0.969                         
   3   CORRELATION COEFFICIENT FO-FC FREE : 0.960                         
   3                                                                      
   3  RMS DEVIATIONS FROM IDEAL VALUES        COUNT    RMS    WEIGHT      
   3   BOND LENGTHS REFINED ATOMS        (A):  4250 ; 0.013 ; 0.020       
   3   BOND LENGTHS OTHERS               (A):  4052 ; 0.003 ; 0.020       
   3   BOND ANGLES REFINED ATOMS   (DEGREES):  5787 ; 2.352 ; 1.980       
   3   BOND ANGLES OTHERS          (DEGREES):  9302 ; 1.065 ; 3.006       
   3   TORSION ANGLES, PERIOD 1    (DEGREES):   543 ; 6.246 ; 5.000       
   3   TORSION ANGLES, PERIOD 2    (DEGREES):   170 ;34.498 ;23.353       
   3   TORSION ANGLES, PERIOD 3    (DEGREES):   648 ;12.092 ;15.000       
   3   TORSION ANGLES, PERIOD 4    (DEGREES):    33 ;15.065 ;15.000       
   3   CHIRAL-CENTER RESTRAINTS       (A**3):   656 ; 0.334 ; 0.200       
   3   GENERAL PLANES REFINED ATOMS      (A):  4844 ; 0.008 ; 0.021       
   3   GENERAL PLANES OTHERS             (A):   951 ; 0.002 ; 0.020       
   3   NON-BONDED CONTACTS REFINED ATOMS (A):  NULL ;  NULL ;  NULL       
   3   NON-BONDED CONTACTS OTHERS        (A):  NULL ;  NULL ;  NULL       
   3   NON-BONDED TORSION REFINED ATOMS  (A):  NULL ;  NULL ;  NULL       
   3   NON-BONDED TORSION OTHERS         (A):  NULL ;  NULL ;  NULL       
   3   H-BOND (X...Y) REFINED ATOMS      (A):  NULL ;  NULL ;  NULL       
   3   H-BOND (X...Y) OTHERS             (A):  NULL ;  NULL ;  NULL       
   3   POTENTIAL METAL-ION REFINED ATOMS (A):  NULL ;  NULL ;  NULL       
   3   POTENTIAL METAL-ION OTHERS        (A):  NULL ;  NULL ;  NULL       
   3   SYMMETRY VDW REFINED ATOMS        (A):  NULL ;  NULL ;  NULL       
   3   SYMMETRY VDW OTHERS               (A):  NULL ;  NULL ;  NULL       
   3   SYMMETRY H-BOND REFINED ATOMS     (A):  NULL ;  NULL ;  NULL       
   3   SYMMETRY H-BOND OTHERS            (A):  NULL ;  NULL ;  NULL       
   3   SYMMETRY METAL-ION REFINED ATOMS  (A):  NULL ;  NULL ;  NULL       
   3   SYMMETRY METAL-ION OTHERS         (A):  NULL ;  NULL ;  NULL       
   3                                                                      
   3  ISOTROPIC THERMAL FACTOR RESTRAINTS.     COUNT   RMS    WEIGHT      
   3   MAIN-CHAIN BOND REFINED ATOMS  (A**2):  NULL ;  NULL ;  NULL       
   3   MAIN-CHAIN BOND OTHER ATOMS    (A**2):  NULL ;  NULL ;  NULL       
   3   MAIN-CHAIN ANGLE REFINED ATOMS (A**2):  NULL ;  NULL ;  NULL       
   3   MAIN-CHAIN ANGLE OTHER ATOMS   (A**2):  NULL ;  NULL ;  NULL       
   3   SIDE-CHAIN BOND REFINED ATOMS  (A**2):  NULL ;  NULL ;  NULL       
   3   SIDE-CHAIN BOND OTHER ATOMS    (A**2):  NULL ;  NULL ;  NULL       
   3   SIDE-CHAIN ANGLE REFINED ATOMS (A**2):  NULL ;  NULL ;  NULL       
   3   SIDE-CHAIN ANGLE OTHER ATOMS   (A**2):  NULL ;  NULL ;  NULL       
   3   LONG RANGE B REFINED ATOMS     (A**2):  NULL ;  NULL ;  NULL       
   3   LONG RANGE B OTHER ATOMS       (A**2):  NULL ;  NULL ;  NULL       
   3                                                                      
   3 ANISOTROPIC THERMAL FACTOR RESTRAINTS.    COUNT   RMS   WEIGHT       
   3   RIGID-BOND RESTRAINTS          (A**2):  NULL ;  NULL ;  NULL       
   3   SPHERICITY; FREE ATOMS         (A**2):  NULL ;  NULL ;  NULL       
   3   SPHERICITY; BONDED ATOMS       (A**2):  NULL ;  NULL ;  NULL       
   3                                                                      
   3  NCS RESTRAINTS STATISTICS                                           
   3   NUMBER OF DIFFERENT NCS GROUPS : NULL                              
   3                                                                      
   3  TLS DETAILS                                                         
   3   NUMBER OF TLS GROUPS  : NULL                                       
   3                                                                      
   3  BULK SOLVENT MODELLING.                                             
   3   METHOD USED : NULL                                                 
   3   PARAMETERS FOR MASK CALCULATION                                    
   3   VDW PROBE RADIUS   : 1.20                                          
   3   ION PROBE RADIUS   : 0.80                                          
   3   SHRINKAGE RADIUS   : 0.80                                          
   3                                                                      
   3  OTHER REFINEMENT REMARKS: HYDROGENS HAVE BEEN ADDED IN THE RIDING   
   3  POSITIONS U VALUES : REFINED INDIVIDUALLY                           
   4                                                                      
   4 6B1X COMPLIES WITH FORMAT V. 3.30, 13-JUL-11                         
 100                                                                      
 100 THIS ENTRY HAS BEEN PROCESSED BY RCSB ON 20-SEP-17.                  
 100 THE DEPOSITION ID IS D_1000230150.                                   
 200                                                                      
 200 EXPERIMENTAL DETAILS                                                 
 200  EXPERIMENT TYPE                : X-RAY DIFFRACTION                  
 200  DATE OF DATA COLLECTION        : 17-MAY-15                          
 200  TEMPERATURE           (KELVIN) : 100                                
 200  PH                             : 4.0                                
 200  NUMBER OF CRYSTALS USED        : 1                                  
 200                                                                      
 200  SYNCHROTRON              (Y/N) : Y                                  
 200  RADIATION SOURCE               : SSRL                               
 200  BEAMLINE                       : BL7-1                              
 200  X-RAY GENERATOR MODEL          : NULL                               
 200  MONOCHROMATIC OR LAUE    (M/L) : M                                  
 200  WAVELENGTH OR RANGE        (A) : 1.12708                            
 200  MONOCHROMATOR                  : NULL                               
 200  OPTICS                         : NULL                               
 200                                                                      
 200  DETECTOR TYPE                  : CCD                                
 200  DETECTOR MANUFACTURER          : ADSC QUANTUM 315R                  
 200  INTENSITY-INTEGRATION SOFTWARE : XDS                                
 200  DATA SCALING SOFTWARE          : AIMLESS 0.5.8                      
 200                                                                      
 200  NUMBER OF UNIQUE REFLECTIONS   : 67132                              
 200  RESOLUTION RANGE HIGH      (A) : 1.450                              
 200  RESOLUTION RANGE LOW       (A) : 37.260                             
 200  REJECTION CRITERIA  (SIGMA(I)) : NULL                               
 200                                                                      
 200 OVERALL.                                                             
 200  COMPLETENESS FOR RANGE     (%) : 92.6                               
 200  DATA REDUNDANCY                : 2.000                              
 200  R MERGE                    (I) : 0.03000                            
 200  R SYM                      (I) : NULL                               
 200  <I/SIGMA(I)> FOR THE DATA SET  : 15.2000                            
 200                                                                      
 200 IN THE HIGHEST RESOLUTION SHELL.                                     
 200  HIGHEST RESOLUTION SHELL, RANGE HIGH (A) : 1.45                     
 200  HIGHEST RESOLUTION SHELL, RANGE LOW  (A) : 1.48                     
 200  COMPLETENESS FOR SHELL     (%) : 64.7                               
 200  DATA REDUNDANCY IN SHELL       : 1.90                               
 200  R MERGE FOR SHELL          (I) : 0.18700                            
 200  R SYM FOR SHELL            (I) : NULL                               
 200  <I/SIGMA(I)> FOR SHELL         : NULL                               
 200                                                                      
 200 DIFFRACTION PROTOCOL: SINGLE WAVELENGTH                              
 200 METHOD USED TO DETERMINE THE STRUCTURE: MOLECULAR REPLACEMENT        
 200 SOFTWARE USED: NULL                                                  
 200 STARTING MODEL: NULL                                                 
 200                                                                      
 200 REMARK: NULL                                                         
 280                                                                      
 280 CRYSTAL                                                              
 280 SOLVENT CONTENT, VS   (%): 34.01                                     
 280 MATTHEWS COEFFICIENT, VM (ANGSTROMS**3/DA): 1.86                     
 280                                                                      
 280 CRYSTALLIZATION CONDITIONS: OF 20% PEG 6000, 100 MM CITRATE PH       
 280  4.0, 100 MM KSCN, 10 MM CDCL2, AND 10MM WCK 5153., VAPOR            
 280  DIFFUSION, SITTING DROP, TEMPERATURE 295K                           
 290                                                                      
 290 CRYSTALLOGRAPHIC SYMMETRY                                            
 290 SYMMETRY OPERATORS FOR SPACE GROUP: P 1                              
 290                                                                      
 290      SYMOP   SYMMETRY                                                
 290     NNNMMM   OPERATOR                                                
 290       1555   X,Y,Z                                                   
 290                                                                      
 290     WHERE NNN -> OPERATOR NUMBER                                     
 290           MMM -> TRANSLATION VECTOR                                  
 290                                                                      
 290 CRYSTALLOGRAPHIC SYMMETRY TRANSFORMATIONS                            
 290 THE FOLLOWING TRANSFORMATIONS OPERATE ON THE ATOM/HETATM             
 290 RECORDS IN THIS ENTRY TO PRODUCE CRYSTALLOGRAPHICALLY                
 290 RELATED MOLECULES.                                                   
 290   SMTRY1   1  1.000000  0.000000  0.000000        0.00000            
 290   SMTRY2   1  0.000000  1.000000  0.000000        0.00000            
 290   SMTRY3   1  0.000000  0.000000  1.000000        0.00000            
 290                                                                      
 290 REMARK: NULL                                                         
 300                                                                      
 300 BIOMOLECULE: 1, 2                                                    
 300 SEE REMARK 350 FOR THE AUTHOR PROVIDED AND/OR PROGRAM                
 300 GENERATED ASSEMBLY INFORMATION FOR THE STRUCTURE IN                  
 300 THIS ENTRY. THE REMARK MAY ALSO PROVIDE INFORMATION ON               
 300 BURIED SURFACE AREA.                                                 
 350                                                                      
 350 COORDINATES FOR A COMPLETE MULTIMER REPRESENTING THE KNOWN           
 350 BIOLOGICALLY SIGNIFICANT OLIGOMERIZATION STATE OF THE                
 350 MOLECULE CAN BE GENERATED BY APPLYING BIOMT TRANSFORMATIONS          
 350 GIVEN BELOW.  BOTH NON-CRYSTALLOGRAPHIC AND                          
 350 CRYSTALLOGRAPHIC OPERATIONS ARE GIVEN.                               
 350                                                                      
 350 BIOMOLECULE: 1                                                       
 350 AUTHOR DETERMINED BIOLOGICAL UNIT: MONOMERIC                         
 350 SOFTWARE DETERMINED QUATERNARY STRUCTURE: MONOMERIC                  
 350 SOFTWARE USED: PISA                                                  
 350 APPLY THE FOLLOWING TO CHAINS: A                                     
 350   BIOMT1   1  1.000000  0.000000  0.000000        0.00000            
 350   BIOMT2   1  0.000000  1.000000  0.000000        0.00000            
 350   BIOMT3   1  0.000000  0.000000  1.000000        0.00000            
 350                                                                      
 350 BIOMOLECULE: 2                                                       
 350 AUTHOR DETERMINED BIOLOGICAL UNIT: MONOMERIC                         
 350 SOFTWARE DETERMINED QUATERNARY STRUCTURE: MONOMERIC                  
 350 SOFTWARE USED: PISA                                                  
 350 APPLY THE FOLLOWING TO CHAINS: B                                     
 350   BIOMT1   1  1.000000  0.000000  0.000000        0.00000            
 350   BIOMT2   1  0.000000  1.000000  0.000000        0.00000            
 350   BIOMT3   1  0.000000  0.000000  1.000000        0.00000            
 465                                                                      
 465 MISSING RESIDUES                                                     
 465 THE FOLLOWING RESIDUES WERE NOT LOCATED IN THE                       
 465 EXPERIMENT. (M=MODEL NUMBER; RES=RESIDUE NAME; C=CHAIN               
 465 IDENTIFIER; SSSEQ=SEQUENCE NUMBER; I=INSERTION CODE.)                
 465                                                                      
 465   M RES C SSSEQI                                                     
 465     ALA B    22                                                      
 465     THR B    23                                                      
 465     ALA B    24                                                      
 500                                                                      
 500 GEOMETRY AND STEREOCHEMISTRY                                         
 500 SUBTOPIC: COVALENT BOND ANGLES                                       
 500                                                                      
 500 THE STEREOCHEMICAL PARAMETERS OF THE FOLLOWING RESIDUES              
 500 HAVE VALUES WHICH DEVIATE FROM EXPECTED VALUES BY MORE               
 500 THAN 6*RMSD (M=MODEL NUMBER; RES=RESIDUE NAME; C=CHAIN               
 500 IDENTIFIER; SSEQ=SEQUENCE NUMBER; I=INSERTION CODE).                 
 500                                                                      
 500 STANDARD TABLE:                                                      
 500 FORMAT: (10X,I3,1X,A3,1X,A1,I4,A1,3(1X,A4,2X),12X,F5.1)              
 500                                                                      
 500 EXPECTED VALUES PROTEIN: ENGH AND HUBER, 1999                        
 500 EXPECTED VALUES NUCLEIC ACID: CLOWNEY ET AL 1996                     
 500                                                                      
 500  M RES CSSEQI ATM1   ATM2   ATM3                                     
 500    ARG B 266   NE  -  CZ  -  NH1 ANGL. DEV. =  -3.5 DEGREES          
 500    ARG B 266   NE  -  CZ  -  NH2 ANGL. DEV. =   5.4 DEGREES          
 500                                                                      
 500 REMARK: NULL                                                         
 500                                                                      
 500 GEOMETRY AND STEREOCHEMISTRY                                         
 500 SUBTOPIC: TORSION ANGLES                                             
 500                                                                      
 500 TORSION ANGLES OUTSIDE THE EXPECTED RAMACHANDRAN REGIONS:            
 500 (M=MODEL NUMBER; RES=RESIDUE NAME; C=CHAIN IDENTIFIER;               
 500 SSEQ=SEQUENCE NUMBER; I=INSERTION CODE).                             
 500                                                                      
 500 STANDARD TABLE:                                                      
 500 FORMAT:(10X,I3,1X,A3,1X,A1,I4,A1,4X,F7.2,3X,F7.2)                    
 500                                                                      
 500 EXPECTED VALUES: GJ KLEYWEGT AND TA JONES (1996). PHI/PSI-           
 500 CHOLOGY: RAMACHANDRAN REVISITED. STRUCTURE 4, 1395 - 1400            
 500                                                                      
 500  M RES CSSEQI        PSI       PHI                                   
 500    CYS A  69     -140.34     50.42                                   
 500    ARG A 220     -123.76   -116.78                                   
 500    CYS B  69     -139.78     48.56                                   
 500    TRP B 105       70.55     52.87                                   
 500    ARG B 220     -123.12   -113.69                                   
 500                                                                      
 500 REMARK: NULL                                                         
 800                                                                      
 800 SITE                                                                 
 800 SITE_IDENTIFIER: AC1                                                 
 800 EVIDENCE_CODE: SOFTWARE                                              
 800 SITE_DESCRIPTION: binding site for residue C9D A 301                 
 800                                                                      
 800 SITE_IDENTIFIER: AC2                                                 
 800 EVIDENCE_CODE: SOFTWARE                                              
 800 SITE_DESCRIPTION: binding site for residue CIT A 302                 
 800                                                                      
 800 SITE_IDENTIFIER: AC3                                                 
 800 EVIDENCE_CODE: SOFTWARE                                              
 800 SITE_DESCRIPTION: binding site for residue EDO A 303                 
 800                                                                      
 800 SITE_IDENTIFIER: AC4                                                 
 800 EVIDENCE_CODE: SOFTWARE                                              
 800 SITE_DESCRIPTION: binding site for residue EDO A 304                 
 800                                                                      
 800 SITE_IDENTIFIER: AC5                                                 
 800 EVIDENCE_CODE: SOFTWARE                                              
 800 SITE_DESCRIPTION: binding site for residue EDO A 305                 
 800                                                                      
 800 SITE_IDENTIFIER: AC6                                                 
 800 EVIDENCE_CODE: SOFTWARE                                              
 800 SITE_DESCRIPTION: binding site for residue EDO A 306                 
 800                                                                      
 800 SITE_IDENTIFIER: AC7                                                 
 800 EVIDENCE_CODE: SOFTWARE                                              
 800 SITE_DESCRIPTION: binding site for residue EDO A 307                 
 800                                                                      
 800 SITE_IDENTIFIER: AC8                                                 
 800 EVIDENCE_CODE: SOFTWARE                                              
 800 SITE_DESCRIPTION: binding site for residue CIT B 302                 
 800                                                                      
 800 SITE_IDENTIFIER: AC9                                                 
 800 EVIDENCE_CODE: SOFTWARE                                              
 800 SITE_DESCRIPTION: binding site for residue EDO B 303                 
 800                                                                      
 800 SITE_IDENTIFIER: AD1                                                 
 800 EVIDENCE_CODE: SOFTWARE                                              
 800 SITE_DESCRIPTION: binding site for residue EDO B 304                 
 800                                                                      
 800 SITE_IDENTIFIER: AD2                                                 
 800 EVIDENCE_CODE: SOFTWARE                                              
 800 SITE_DESCRIPTION: binding site for residue EDO B 305                 
 800                                                                      
 800 SITE_IDENTIFIER: AD3                                                 
 800 EVIDENCE_CODE: SOFTWARE                                              
 800 SITE_DESCRIPTION: binding site for Di-peptide C9D B 301 and SER B    
 800  70                                                                  
 900                                                                      
 900 RELATED ENTRIES                                                      
 900 RELATED ID: 6B1J   RELATED DB: PDB                                   
 900 6B1J CONTAINS THE SAME PROTEIN BUT COMPLEXED TO A SIMILAR INHIBITOR, 
 900 WCK 5107                                                             

>  <DBREF>  (1) 
 6B1X A   22   291  UNP    Q9F663   BLKPC_KLEPN     22    289             
 6B1X B   22   291  UNP    Q9F663   BLKPC_KLEPN     22    289             

>  <SEQRES>  (1) 
   1 A  268  ALA THR ALA LEU THR ASN LEU VAL ALA GLU PRO PHE ALA          
   2 A  268  LYS LEU GLU GLN ASP PHE GLY GLY SER ILE GLY VAL TYR          
   3 A  268  ALA MET ASP THR GLY SER GLY ALA THR VAL SER TYR ARG          
   4 A  268  ALA GLU GLU ARG PHE PRO LEU CYS SER SER PHE LYS GLY          
   5 A  268  PHE LEU ALA ALA ALA VAL LEU ALA ARG SER GLN GLN GLN          
   6 A  268  ALA GLY LEU LEU ASP THR PRO ILE ARG TYR GLY LYS ASN          
   7 A  268  ALA LEU VAL PRO TRP SER PRO ILE SER GLU LYS TYR LEU          
   8 A  268  THR THR GLY MET THR VAL ALA GLU LEU SER ALA ALA ALA          
   9 A  268  VAL GLN TYR SER ASP ASN ALA ALA ALA ASN LEU LEU LEU          
  10 A  268  LYS GLU LEU GLY GLY PRO ALA GLY LEU THR ALA PHE MET          
  11 A  268  ARG SER ILE GLY ASP THR THR PHE ARG LEU ASP ARG TRP          
  12 A  268  GLU LEU GLU LEU ASN SER ALA ILE PRO GLY ASP ALA ARG          
  13 A  268  ASP THR SER SER PRO ARG ALA VAL THR GLU SER LEU GLN          
  14 A  268  LYS LEU THR LEU GLY SER ALA LEU ALA ALA PRO GLN ARG          
  15 A  268  GLN GLN PHE VAL ASP TRP LEU LYS GLY ASN THR THR GLY          
  16 A  268  ASN HIS ARG ILE ARG ALA ALA VAL PRO ALA ASP TRP ALA          
  17 A  268  VAL GLY ASP LYS THR GLY THR CYS GLY VAL TYR GLY THR          
  18 A  268  ALA ASN ASP TYR ALA VAL VAL TRP PRO THR GLY ARG ALA          
  19 A  268  PRO ILE VAL LEU ALA VAL TYR THR ARG ALA PRO ASN LYS          
  20 A  268  ASP ASP LYS HIS SER GLU ALA VAL ILE ALA ALA ALA ALA          
  21 A  268  ARG LEU ALA LEU GLU GLY LEU GLY                              
   1 B  268  ALA THR ALA LEU THR ASN LEU VAL ALA GLU PRO PHE ALA          
   2 B  268  LYS LEU GLU GLN ASP PHE GLY GLY SER ILE GLY VAL TYR          
   3 B  268  ALA MET ASP THR GLY SER GLY ALA THR VAL SER TYR ARG          
   4 B  268  ALA GLU GLU ARG PHE PRO LEU CYS SER SER PHE LYS GLY          
   5 B  268  PHE LEU ALA ALA ALA VAL LEU ALA ARG SER GLN GLN GLN          
   6 B  268  ALA GLY LEU LEU ASP THR PRO ILE ARG TYR GLY LYS ASN          
   7 B  268  ALA LEU VAL PRO TRP SER PRO ILE SER GLU LYS TYR LEU          
   8 B  268  THR THR GLY MET THR VAL ALA GLU LEU SER ALA ALA ALA          
   9 B  268  VAL GLN TYR SER ASP ASN ALA ALA ALA ASN LEU LEU LEU          
  10 B  268  LYS GLU LEU GLY GLY PRO ALA GLY LEU THR ALA PHE MET          
  11 B  268  ARG SER ILE GLY ASP THR THR PHE ARG LEU ASP ARG TRP          
  12 B  268  GLU LEU GLU LEU ASN SER ALA ILE PRO GLY ASP ALA ARG          
  13 B  268  ASP THR SER SER PRO ARG ALA VAL THR GLU SER LEU GLN          
  14 B  268  LYS LEU THR LEU GLY SER ALA LEU ALA ALA PRO GLN ARG          
  15 B  268  GLN GLN PHE VAL ASP TRP LEU LYS GLY ASN THR THR GLY          
  16 B  268  ASN HIS ARG ILE ARG ALA ALA VAL PRO ALA ASP TRP ALA          
  17 B  268  VAL GLY ASP LYS THR GLY THR CYS GLY VAL TYR GLY THR          
  18 B  268  ALA ASN ASP TYR ALA VAL VAL TRP PRO THR GLY ARG ALA          
  19 B  268  PRO ILE VAL LEU ALA VAL TYR THR ARG ALA PRO ASN LYS          
  20 B  268  ASP ASP LYS HIS SER GLU ALA VAL ILE ALA ALA ALA ALA          
  21 B  268  ARG LEU ALA LEU GLU GLY LEU GLY                              

>  <HET>  (1) 
 C9D  A 301      25                                                       
 CIT  A 302      13                                                       
 EDO  A 303       4                                                       
 EDO  A 304       4                                                       
 EDO  A 305       4                                                       
 EDO  A 306       4                                                       
 EDO  A 307       4                                                       
 C9D  B 301      25                                                       
 CIT  B 302      13                                                       
 EDO  B 303       4                                                       
 EDO  B 304       4                                                       
 EDO  B 305       4                                                       

>  <HETNAM>  (1) 
     C9D (2S,5R)-1-FORMYL-N'-[(3R)-PYRROLIDINE-3-CARBONYL]-5-             
   2 C9D  [(SULFOOXY)AMINO]PIPERIDINE-2-CARBOHYDRAZIDE                    
     CIT CITRIC ACID                                                      
     EDO 1,2-ETHANEDIOL                                                   

>  <HETSYN>  (1) 
     C9D OPEN FORM - WCK 5153                                             
     EDO ETHYLENE GLYCOL                                                  

>  <FORMUL>  (1) 
   3  C9D    2(C12 H21 N5 O7 S)                                           
   4  CIT    2(C6 H8 O7)                                                  
   5  EDO    8(C2 H6 O2)                                                  
  15  HOH   *480(H2 O)                                                    

>  <HELIX>  (1) 
   1 AA1 LEU A   25  GLY A   41  1                                  17    
   2 AA2 SER A   71  GLN A   87  1                                  17    
   3 AA3 GLY A   89  ASP A   92  5                                   4    
   4 AA4 GLY A   98  LEU A  102  5                                   5    
   5 AA5 ILE A  108  LEU A  113  5                                   6    
   6 AA6 VAL A  119  TYR A  129  1                                  11    
   7 AA7 ASP A  131  LEU A  142  1                                  12    
   8 AA8 GLY A  143  ILE A  155  1                                  13    
   9 AA9 LEU A  167  SER A  171  5                                   5    
  10 AB1 SER A  182  LEU A  195  1                                  14    
  11 AB2 ALA A  200  GLY A  213  1                                  14    
  12 AB3 ARG A  220  VAL A  225  5                                   6    
  13 AB4 SER A  275  GLY A  289  1                                  15    
  14 AB5 THR B   26  GLY B   41  1                                  16    
  15 AB6 SER B   71  GLN B   85  1                                  15    
  16 AB7 GLY B   89  ASP B   92  5                                   4    
  17 AB8 GLY B   98  LEU B  102  5                                   5    
  18 AB9 ILE B  108  LEU B  113  5                                   6    
  19 AC1 VAL B  119  TYR B  129  1                                  11    
  20 AC2 ASP B  131  LEU B  142  1                                  12    
  21 AC3 GLY B  144  ILE B  155  1                                  12    
  22 AC4 LEU B  167  SER B  171  5                                   5    
  23 AC5 SER B  182  LEU B  195  1                                  14    
  24 AC6 ALA B  200  GLY B  213  1                                  14    
  25 AC7 ARG B  220  VAL B  225  5                                   6    
  26 AC8 SER B  275  GLY B  289  1                                  15    

>  <SHEET>  (1) 
   1 AA1 5 THR A  56  TYR A  60  0                                        
   2 AA1 5 SER A  43  ASP A  50 -1  N  VAL A  46   O  TYR A  60           
   3 AA1 5 ILE A 259  ARG A 266 -1  O  TYR A 264   N  GLY A  45           
   4 AA1 5 ALA A 244  TRP A 251 -1  N  VAL A 250   O  ILE A 259           
   5 AA1 5 ALA A 230  THR A 237 -1  N  ALA A 230   O  TRP A 251           
   1 AA2 2 PHE A  66  PRO A  67  0                                        
   2 AA2 2 THR A 180  SER A 181 -1  O  SER A 181   N  PHE A  66           
   1 AA3 2 PRO A  94  ILE A  95  0                                        
   2 AA3 2 MET A 117  THR A 118 -1  O  MET A 117   N  ILE A  95           
   1 AA4 5 THR B  56  TYR B  60  0                                        
   2 AA4 5 SER B  43  ASP B  50 -1  N  VAL B  46   O  TYR B  60           
   3 AA4 5 ILE B 259  ARG B 266 -1  O  TYR B 264   N  GLY B  45           
   4 AA4 5 ALA B 244  TRP B 251 -1  N  ASP B 246   O  VAL B 263           
   5 AA4 5 ALA B 230  THR B 237 -1  N  GLY B 236   O  ASN B 245           
   1 AA5 2 PHE B  66  PRO B  67  0                                        
   2 AA5 2 THR B 180  SER B 181 -1  O  SER B 181   N  PHE B  66           
   1 AA6 2 PRO B  94  ILE B  95  0                                        
   2 AA6 2 MET B 117  THR B 118 -1  O  MET B 117   N  ILE B  95           

>  <SSBOND>  (1) 
   1 CYS A   69    CYS A  238                          1555   1555  2.08  
   2 CYS B   69    CYS B  238                          1555   1555  2.10  

>  <LINK>  (1) 
       SD AMET A  49                 OE1AGLN A 191     1555   1555  1.78  
       OG  SER A  70                 CAG C9D A 301     1555   1555  1.44  
       OG  SER B  70                 CAG C9D B 301     1555   1555  1.49  

>  <CISPEP>  (1) 
   1 GLU A  166    LEU A  167          0         9.10                     
   2 GLU B  166    LEU B  167          0         8.04                     

>  <SITE>  (1) 
   1 AC1 18 CYS A  69  SER A  70  TRP A 105  SER A 130                    
   2 AC1 18 ASN A 132  ASN A 170  THR A 216  LYS A 234                    
   3 AC1 18 THR A 235  GLY A 236  THR A 237  CYS A 238                    
   4 AC1 18 HOH A 405  HOH A 424  HOH A 537  HOH A 538                    
   5 AC1 18 HOH A 572  HOH A 580                                          
   1 AC2 14 TYR A  97  GLY A  98  ASN A 100  ALA A 101                    
   2 AC2 14 HOH A 401  HOH A 404  HOH A 493  ARG B  96                    
   3 AC2 14 ARG B 164  ARG B 178  EDO B 304  HOH B 420                    
   4 AC2 14 HOH B 428  HOH B 483                                          
   1 AC3  6 ALA A 124  ALA A 125  GLN A 128  TYR A 129                    
   2 AC3  6 PRO A 174  HOH A 505                                          
   1 AC4  7 ALA A  82  GLN A  85  GLN A  86  VAL A 103                    
   2 AC4  7 PRO A 104  HOH A 414  HOH A 484                               
   1 AC5  6 ARG A  96  THR A 115  ASN B 136  TRP B 165                    
   2 AC5  6 CIT B 302  HOH B 497                                          
   1 AC6  5 GLN A 205  VAL A 208  LYS A 212  TRP A 251                    
   2 AC6  5 HOH A 586                                                     
   1 AC7  3 PRO A 107  ARG A 204  HOH A 403                               
   1 AC8 13 PRO A  94  ARG A  96  THR A 115  GLY A 116                    
   2 AC8 13 MET A 117  THR A 118  ARG A 178  EDO A 305                    
   3 AC8 13 ASN B 100  ALA B 101  LYS B 140  HOH B 491                    
   4 AC8 13 HOH B 537                                                     
   1 AC9  7 ALA B 124  ALA B 125  GLN B 128  TYR B 129                    
   2 AC9  7 ILE B 173  PRO B 174  HOH B 492                               
   1 AD1  6 CIT A 302  PRO B  94  THR B 115  ARG B 178                    
   2 AD1  6 EDO B 305  HOH B 420                                          
   1 AD2  6 TYR B 112  THR B 115  GLU B 121  ARG B 178                    
   2 AD2  6 EDO B 304  HOH B 407                                          
   1 AD3 22 LEU B  68  CYS B  69  SER B  71  PHE B  72                    
   2 AD3 22 LYS B  73  TRP B 105  SER B 130  ASN B 132                    
   3 AD3 22 LEU B 167  ASN B 170  THR B 216  LYS B 234                    
   4 AD3 22 THR B 235  GLY B 236  THR B 237  CYS B 238                    
   5 AD3 22 HOH B 412  HOH B 425  HOH B 495  HOH B 514                    
   6 AD3 22 HOH B 526  HOH B 554                                          

>  <ORIGX1>  (1) 
      1.000000  0.000000  0.000000        0.00000                         

>  <ORIGX2>  (1) 
      0.000000  1.000000  0.000000        0.00000                         

>  <ORIGX3>  (1) 
      0.000000  0.000000  1.000000        0.00000                         

>  <SCALE1>  (1) 
      0.028991  0.002579  0.000209        0.00000                         

>  <SCALE2>  (1) 
      0.000000  0.026818  0.001091        0.00000                         

>  <SCALE3>  (1) 
      0.000000  0.000000  0.012170        0.00000                         

>  <MASTER>  (1) 
      341    0   12   26   18    0   34    6 4565    2  116   42          

$$$$
