start_structures/Ligand_Substrate/Ligand_Complex_Stripped/QS8_6ZXI.pdb
     RDKit          3D

 21 21  0  0  1  0  0  0  0  0999 V2000
   48.7968   51.8771   46.3359 N   0  0  0  0  0  0  0  0  0  0  0  0
   47.4473   51.3815   46.5444 C   0  0  2  0  0  0  0  0  0  0  0  0
   47.4044   49.8864   46.4403 C   0  0  0  0  0  0  0  0  0  0  0  0
   46.4741   49.2679   46.9364 O   0  0  0  0  0  0  0  0  0  0  0  0
   46.5146   52.0024   45.5113 C   0  0  0  0  0  0  0  0  0  0  0  0
   46.1627   53.3347   45.8716 O   0  0  0  0  0  0  0  0  0  0  0  0
   46.3115   57.0225   47.5465 C   0  0  2  0  0  0  0  0  0  0  0  0
   45.4446   57.2781   48.7897 C   0  0  0  0  0  0  0  0  0  0  0  0
   44.0065   56.7934   48.6209 C   0  0  0  0  0  0  0  0  0  0  0  0
   46.4007   58.3622   43.8818 O   0  0  0  0  0  0  0  0  0  0  0  0
   47.6623   59.0126   44.8215 S   0  0  0  0  0  0  0  0  0  0  0  0
   47.3412   60.6491   45.1624 O   0  0  0  0  0  0  0  0  0  0  0  0
   49.1204   58.8996   43.9521 O   0  0  0  0  0  0  0  0  0  0  0  0
   47.8104   58.1368   46.2759 O   0  0  0  0  0  0  0  0  0  0  0  0
   46.6140   58.2852   46.8942 N   0  0  0  0  0  0  0  0  0  0  0  0
   43.9972   55.3023   48.2887 C   0  0  1  0  0  0  0  0  0  0  0  0
   42.7269   54.9281   47.8906 F   0  0  0  0  0  0  0  0  0  0  0  0
   45.6710   56.0591   46.5392 C   0  0  0  0  0  0  0  0  0  0  0  0
   44.9676   54.9831   47.2347 N   0  0  0  0  0  0  0  0  0  0  0  0
   45.2477   53.6198   46.8905 C   0  0  0  0  0  0  0  0  0  0  0  0
   44.6704   52.6810   47.5059 O   0  0  0  0  0  0  0  0  0  0  0  0
  2  1  1  6
  3  2  1  0
  4  3  2  0
  5  2  1  0
  6 20  1  0
  6  5  1  0
  7  8  1  0
  7 15  1  1
  7 18  1  0
  8  9  1  0
  9 16  1  0
 10 11  1  0
 11 12  1  0
 11 13  1  0
 11 14  1  0
 14 15  1  0
 16 17  1  6
 16 19  1  0
 18 19  1  0
 19 20  1  0
 20 21  2  0
M  CHG  1  12  -1
M  END
>  <HEADER>  (1) 
    HYDROLASE                               29-JUL-20   6ZXI              

>  <TITLE>  (1) 
    CRYSTAL STRUCTURE OF THE OXA-48 CARBAPENEM-HYDROLYZING CLASS D BETA-  
   2 LACTAMASE IN COMPLEX WITH THE DBO INHIBITOR ANT3310                  

>  <COMPND>  (1) 
    MOL_ID: 1;                                                            
   2 MOLECULE: BETA-LACTAMASE;                                            
   3 CHAIN: A, B;                                                         
   4 EC: 3.5.2.6;                                                         
   5 ENGINEERED: YES                                                      

>  <SOURCE>  (1) 
    MOL_ID: 1;                                                            
   2 ORGANISM_SCIENTIFIC: KLEBSIELLA PNEUMONIAE;                          
   3 ORGANISM_TAXID: 573;                                                 
   4 GENE: BLA OXA-48, BLA_1, BLA_2, BLA_5, BLAOXA-48, B6R99_29845,       
   5 GJD56_28020, GJJ04_29145, KPE71T_00045, SAMEA3538918_02768,          
   6 SAMEA3538961_03054, SAMEA3673128_05462;                              
   7 EXPRESSION_SYSTEM: ESCHERICHIA COLI;                                 
   8 EXPRESSION_SYSTEM_TAXID: 562;                                        
   9 EXPRESSION_SYSTEM_STRAIN: MCT236(DE3);                               
  10 EXPRESSION_SYSTEM_PLASMID: PET-OXA48                                 

>  <KEYWDS>  (1) 
    BETA-LACTAMASE, CARBAPENEMASE, ANT3310, ANTIBIOTIC RESISTANCE,        
   2 CARBAPENEM-HYDROLYZING BETA-LACTAMASE, HYDROLASE,                    
   3 DIAZABICYCLOOCTANONE INHIBITOR                                       

>  <EXPDTA>  (1) 
    X-RAY DIFFRACTION                                                     

>  <AUTHOR>  (1) 
    J.D.DOCQUIER,C.POZZI,F.DE LUCA,M.BENVENUTI,S.MANGANI                  

>  <REVDAT>  (1) 
   2   01-MAR-23 6ZXI    1       JRNL                                     
   1   11-AUG-21 6ZXI    0                                                

>  <JRNL>  (1) 
      AUTH   D.T.DAVIES,S.LEIRIS,M.ZALACAIN,N.SPRYNSKI,J.CASTANDET,       
      AUTH 2 J.BOUSQUET,C.LOZANO,A.LLANOS,L.ALIBAUD,S.VASA,R.PATTIPATI,   
      AUTH 3 R.VALIGE,B.KUMMARI,S.POTHUKANURI,C.DE PIANO,I.MORRISSEY,     
      AUTH 4 K.HOLDEN,P.WARN,F.MARCOCCIA,M.BENVENUTI,C.POZZI,G.TASSONE,   
      AUTH 5 S.MANGANI,J.D.DOCQUIER,D.PALLIN,R.ELLIOT,M.LEMONNIER,        
      AUTH 6 M.EVERETT                                                    
      TITL   DISCOVERY OF ANT3310 , A NOVEL BROAD-SPECTRUM SERINE         
      TITL 2 BETA-LACTAMASE INHIBITOR OF THE DIAZABICYCLOOCTANE CLASS,    
      TITL 3 WHICH STRONGLY POTENTIATES MEROPENEM ACTIVITY AGAINST        
      TITL 4 CARBAPENEM-RESISTANT ENTEROBACTERALES AND ACINETOBACTER      
      TITL 5 BAUMANNII.                                                   
      REF    J.MED.CHEM.                   V.  63 15802 2020              
      REFN                   ISSN 0022-2623                               
      PMID   33306385                                                     
      DOI    10.1021/ACS.JMEDCHEM.0C01535                                 

>  <REMARK>  (1) 
   2                                                                      
   2 RESOLUTION.    1.85 ANGSTROMS.                                       
   3                                                                      
   3 REFINEMENT.                                                          
   3   PROGRAM     : REFMAC 5.8.0258                                      
   3   AUTHORS     : MURSHUDOV,SKUBAK,LEBEDEV,PANNU,STEINER,              
   3               : NICHOLLS,WINN,LONG,VAGIN                             
   3                                                                      
   3    REFINEMENT TARGET : MAXIMUM LIKELIHOOD                            
   3                                                                      
   3  DATA USED IN REFINEMENT.                                            
   3   RESOLUTION RANGE HIGH (ANGSTROMS) : 1.85                           
   3   RESOLUTION RANGE LOW  (ANGSTROMS) : 52.61                          
   3   DATA CUTOFF            (SIGMA(F)) : 0.000                          
   3   COMPLETENESS FOR RANGE        (%) : 99.9                           
   3   NUMBER OF REFLECTIONS             : 48721                          
   3                                                                      
   3  FIT TO DATA USED IN REFINEMENT.                                     
   3   CROSS-VALIDATION METHOD          : THROUGHOUT                      
   3   FREE R VALUE TEST SET SELECTION  : RANDOM                          
   3   R VALUE     (WORKING + TEST SET) : 0.174                           
   3   R VALUE            (WORKING SET) : 0.172                           
   3   FREE R VALUE                     : 0.218                           
   3   FREE R VALUE TEST SET SIZE   (%) : 5.300                           
   3   FREE R VALUE TEST SET COUNT      : 2739                            
   3                                                                      
   3  FIT IN THE HIGHEST RESOLUTION BIN.                                  
   3   TOTAL NUMBER OF BINS USED           : 20                           
   3   BIN RESOLUTION RANGE HIGH       (A) : 1.85                         
   3   BIN RESOLUTION RANGE LOW        (A) : 1.90                         
   3   REFLECTION IN BIN     (WORKING SET) : 3516                         
   3   BIN COMPLETENESS (WORKING+TEST) (%) : 99.87                        
   3   BIN R VALUE           (WORKING SET) : 0.2900                       
   3   BIN FREE R VALUE SET COUNT          : 210                          
   3   BIN FREE R VALUE                    : 0.3140                       
   3                                                                      
   3  NUMBER OF NON-HYDROGEN ATOMS USED IN REFINEMENT.                    
   3   PROTEIN ATOMS            : 3929                                    
   3   NUCLEIC ACID ATOMS       : 0                                       
   3   HETEROGEN ATOMS          : 42                                      
   3   SOLVENT ATOMS            : 428                                     
   3                                                                      
   3  B VALUES.                                                           
   3   FROM WILSON PLOT           (A**2) : NULL                           
   3   MEAN B VALUE      (OVERALL, A**2) : 33.25                          
   3   OVERALL ANISOTROPIC B VALUE.                                       
   3    B11 (A**2) : 0.00000                                              
   3    B22 (A**2) : 0.00000                                              
   3    B33 (A**2) : 0.00000                                              
   3    B12 (A**2) : 0.00000                                              
   3    B13 (A**2) : 0.00000                                              
   3    B23 (A**2) : 0.00000                                              
   3                                                                      
   3  ESTIMATED OVERALL COORDINATE ERROR.                                 
   3   ESU BASED ON R VALUE                            (A): 0.123         
   3   ESU BASED ON FREE R VALUE                       (A): 0.124         
   3   ESU BASED ON MAXIMUM LIKELIHOOD                 (A): 0.092         
   3   ESU FOR B VALUES BASED ON MAXIMUM LIKELIHOOD (A**2): 3.208         
   3                                                                      
   3 CORRELATION COEFFICIENTS.                                            
   3   CORRELATION COEFFICIENT FO-FC      : 0.969                         
   3   CORRELATION COEFFICIENT FO-FC FREE : 0.950                         
   3                                                                      
   3  RMS DEVIATIONS FROM IDEAL VALUES        COUNT    RMS    WEIGHT      
   3   BOND LENGTHS REFINED ATOMS        (A):  4126 ; 0.010 ; 0.013       
   3   BOND LENGTHS OTHERS               (A):  3697 ; 0.001 ; 0.017       
   3   BOND ANGLES REFINED ATOMS   (DEGREES):  5602 ; 1.617 ; 1.642       
   3   BOND ANGLES OTHERS          (DEGREES):  8579 ; 1.435 ; 1.585       
   3   TORSION ANGLES, PERIOD 1    (DEGREES):   503 ; 6.214 ; 5.000       
   3   TORSION ANGLES, PERIOD 2    (DEGREES):   233 ;33.202 ;23.133       
   3   TORSION ANGLES, PERIOD 3    (DEGREES):   707 ;13.752 ;15.000       
   3   TORSION ANGLES, PERIOD 4    (DEGREES):    23 ;19.267 ;15.000       
   3   CHIRAL-CENTER RESTRAINTS       (A**3):   529 ; 0.082 ; 0.200       
   3   GENERAL PLANES REFINED ATOMS      (A):  4642 ; 0.009 ; 0.020       
   3   GENERAL PLANES OTHERS             (A):   903 ; 0.001 ; 0.020       
   3   NON-BONDED CONTACTS REFINED ATOMS (A):  NULL ;  NULL ;  NULL       
   3   NON-BONDED CONTACTS OTHERS        (A):  NULL ;  NULL ;  NULL       
   3   NON-BONDED TORSION REFINED ATOMS  (A):  NULL ;  NULL ;  NULL       
   3   NON-BONDED TORSION OTHERS         (A):  NULL ;  NULL ;  NULL       
   3   H-BOND (X...Y) REFINED ATOMS      (A):  NULL ;  NULL ;  NULL       
   3   H-BOND (X...Y) OTHERS             (A):  NULL ;  NULL ;  NULL       
   3   POTENTIAL METAL-ION REFINED ATOMS (A):  NULL ;  NULL ;  NULL       
   3   POTENTIAL METAL-ION OTHERS        (A):  NULL ;  NULL ;  NULL       
   3   SYMMETRY VDW REFINED ATOMS        (A):  NULL ;  NULL ;  NULL       
   3   SYMMETRY VDW OTHERS               (A):  NULL ;  NULL ;  NULL       
   3   SYMMETRY H-BOND REFINED ATOMS     (A):  NULL ;  NULL ;  NULL       
   3   SYMMETRY H-BOND OTHERS            (A):  NULL ;  NULL ;  NULL       
   3   SYMMETRY METAL-ION REFINED ATOMS  (A):  NULL ;  NULL ;  NULL       
   3   SYMMETRY METAL-ION OTHERS         (A):  NULL ;  NULL ;  NULL       
   3                                                                      
   3  ISOTROPIC THERMAL FACTOR RESTRAINTS.     COUNT   RMS    WEIGHT      
   3   MAIN-CHAIN BOND REFINED ATOMS  (A**2):  NULL ;  NULL ;  NULL       
   3   MAIN-CHAIN BOND OTHER ATOMS    (A**2):  NULL ;  NULL ;  NULL       
   3   MAIN-CHAIN ANGLE REFINED ATOMS (A**2):  NULL ;  NULL ;  NULL       
   3   MAIN-CHAIN ANGLE OTHER ATOMS   (A**2):  NULL ;  NULL ;  NULL       
   3   SIDE-CHAIN BOND REFINED ATOMS  (A**2):  NULL ;  NULL ;  NULL       
   3   SIDE-CHAIN BOND OTHER ATOMS    (A**2):  NULL ;  NULL ;  NULL       
   3   SIDE-CHAIN ANGLE REFINED ATOMS (A**2):  NULL ;  NULL ;  NULL       
   3   SIDE-CHAIN ANGLE OTHER ATOMS   (A**2):  NULL ;  NULL ;  NULL       
   3   LONG RANGE B REFINED ATOMS     (A**2):  NULL ;  NULL ;  NULL       
   3   LONG RANGE B OTHER ATOMS       (A**2):  NULL ;  NULL ;  NULL       
   3                                                                      
   3 ANISOTROPIC THERMAL FACTOR RESTRAINTS.    COUNT   RMS   WEIGHT       
   3   RIGID-BOND RESTRAINTS          (A**2):  NULL ;  NULL ;  NULL       
   3   SPHERICITY; FREE ATOMS         (A**2):  NULL ;  NULL ;  NULL       
   3   SPHERICITY; BONDED ATOMS       (A**2):  NULL ;  NULL ;  NULL       
   3                                                                      
   3  NCS RESTRAINTS STATISTICS                                           
   3   NUMBER OF DIFFERENT NCS GROUPS : NULL                              
   3                                                                      
   3  TLS DETAILS                                                         
   3   NUMBER OF TLS GROUPS  : NULL                                       
   3                                                                      
   3  BULK SOLVENT MODELLING.                                             
   3   METHOD USED : MASK                                                 
   3   PARAMETERS FOR MASK CALCULATION                                    
   3   VDW PROBE RADIUS   : 1.20                                          
   3   ION PROBE RADIUS   : 0.80                                          
   3   SHRINKAGE RADIUS   : 0.80                                          
   3                                                                      
   3  OTHER REFINEMENT REMARKS: HYDROGENS HAVE BEEN ADDED IN THE RIDING   
   3  POSITIONS U VALUES : REFINED INDIVIDUALLY                           
   4                                                                      
   4 6ZXI COMPLIES WITH FORMAT V. 3.30, 13-JUL-11                         
 100                                                                      
 100 THIS ENTRY HAS BEEN PROCESSED BY PDBE ON 31-JUL-20.                  
 100 THE DEPOSITION ID IS D_1292110461.                                   
 200                                                                      
 200 EXPERIMENTAL DETAILS                                                 
 200  EXPERIMENT TYPE                : X-RAY DIFFRACTION                  
 200  DATE OF DATA COLLECTION        : 17-MAY-19                          
 200  TEMPERATURE           (KELVIN) : 100                                
 200  PH                             : 7.5                                
 200  NUMBER OF CRYSTALS USED        : 1                                  
 200                                                                      
 200  SYNCHROTRON              (Y/N) : Y                                  
 200  RADIATION SOURCE               : DIAMOND                            
 200  BEAMLINE                       : I04                                
 200  X-RAY GENERATOR MODEL          : NULL                               
 200  MONOCHROMATIC OR LAUE    (M/L) : M                                  
 200  WAVELENGTH OR RANGE        (A) : 0.97951                            
 200  MONOCHROMATOR                  : NULL                               
 200  OPTICS                         : NULL                               
 200                                                                      
 200  DETECTOR TYPE                  : PIXEL                              
 200  DETECTOR MANUFACTURER          : DECTRIS EIGER X 16M                
 200  INTENSITY-INTEGRATION SOFTWARE : MOSFLM                             
 200  DATA SCALING SOFTWARE          : SCALA                              
 200                                                                      
 200  NUMBER OF UNIQUE REFLECTIONS   : 51511                              
 200  RESOLUTION RANGE HIGH      (A) : 1.850                              
 200  RESOLUTION RANGE LOW       (A) : 53.850                             
 200  REJECTION CRITERIA  (SIGMA(I)) : NULL                               
 200                                                                      
 200 OVERALL.                                                             
 200  COMPLETENESS FOR RANGE     (%) : 100.0                              
 200  DATA REDUNDANCY                : 7.500                              
 200  R MERGE                    (I) : 0.06800                            
 200  R SYM                      (I) : NULL                               
 200  <I/SIGMA(I)> FOR THE DATA SET  : 14.8000                            
 200                                                                      
 200 IN THE HIGHEST RESOLUTION SHELL.                                     
 200  HIGHEST RESOLUTION SHELL, RANGE HIGH (A) : 1.85                     
 200  HIGHEST RESOLUTION SHELL, RANGE LOW  (A) : 1.95                     
 200  COMPLETENESS FOR SHELL     (%) : 99.9                               
 200  DATA REDUNDANCY IN SHELL       : 7.60                               
 200  R MERGE FOR SHELL          (I) : 0.87100                            
 200  R SYM FOR SHELL            (I) : NULL                               
 200  <I/SIGMA(I)> FOR SHELL         : 2.200                              
 200                                                                      
 200 DIFFRACTION PROTOCOL: SINGLE WAVELENGTH                              
 200 METHOD USED TO DETERMINE THE STRUCTURE: MOLECULAR REPLACEMENT        
 200 SOFTWARE USED: MOLREP                                                
 200 STARTING MODEL: 3HBR                                                 
 200                                                                      
 200 REMARK: NULL                                                         
 280                                                                      
 280 CRYSTAL                                                              
 280 SOLVENT CONTENT, VS   (%): 53.13                                     
 280 MATTHEWS COEFFICIENT, VM (ANGSTROMS**3/DA): 2.62                     
 280                                                                      
 280 CRYSTALLIZATION CONDITIONS: 0.1 M HEPES (PH 7,5), 12% PEG 4000, 3%   
 280  1-BUTANOL, PH 7.5, VAPOR DIFFUSION, SITTING DROP, TEMPERATURE       
 280  293K                                                                
 290                                                                      
 290 CRYSTALLOGRAPHIC SYMMETRY                                            
 290 SYMMETRY OPERATORS FOR SPACE GROUP: P 2 21 21                        
 290                                                                      
 290      SYMOP   SYMMETRY                                                
 290     NNNMMM   OPERATOR                                                
 290       1555   X,Y,Z                                                   
 290       2555   X,-Y,-Z                                                 
 290       3555   -X,Y+1/2,-Z+1/2                                         
 290       4555   -X,-Y+1/2,Z+1/2                                         
 290                                                                      
 290     WHERE NNN -> OPERATOR NUMBER                                     
 290           MMM -> TRANSLATION VECTOR                                  
 290                                                                      
 290 CRYSTALLOGRAPHIC SYMMETRY TRANSFORMATIONS                            
 290 THE FOLLOWING TRANSFORMATIONS OPERATE ON THE ATOM/HETATM             
 290 RECORDS IN THIS ENTRY TO PRODUCE CRYSTALLOGRAPHICALLY                
 290 RELATED MOLECULES.                                                   
 290   SMTRY1   1  1.000000  0.000000  0.000000        0.00000            
 290   SMTRY2   1  0.000000  1.000000  0.000000        0.00000            
 290   SMTRY3   1  0.000000  0.000000  1.000000        0.00000            
 290   SMTRY1   2  1.000000  0.000000  0.000000        0.00000            
 290   SMTRY2   2  0.000000 -1.000000  0.000000        0.00000            
 290   SMTRY3   2  0.000000  0.000000 -1.000000        0.00000            
 290   SMTRY1   3 -1.000000  0.000000  0.000000        0.00000            
 290   SMTRY2   3  0.000000  1.000000  0.000000       52.55300            
 290   SMTRY3   3  0.000000  0.000000 -1.000000       62.71300            
 290   SMTRY1   4 -1.000000  0.000000  0.000000        0.00000            
 290   SMTRY2   4  0.000000 -1.000000  0.000000       52.55300            
 290   SMTRY3   4  0.000000  0.000000  1.000000       62.71300            
 290                                                                      
 290 REMARK: NULL                                                         
 300                                                                      
 300 BIOMOLECULE: 1                                                       
 300 SEE REMARK 350 FOR THE AUTHOR PROVIDED AND/OR PROGRAM                
 300 GENERATED ASSEMBLY INFORMATION FOR THE STRUCTURE IN                  
 300 THIS ENTRY. THE REMARK MAY ALSO PROVIDE INFORMATION ON               
 300 BURIED SURFACE AREA.                                                 
 350                                                                      
 350 COORDINATES FOR A COMPLETE MULTIMER REPRESENTING THE KNOWN           
 350 BIOLOGICALLY SIGNIFICANT OLIGOMERIZATION STATE OF THE                
 350 MOLECULE CAN BE GENERATED BY APPLYING BIOMT TRANSFORMATIONS          
 350 GIVEN BELOW.  BOTH NON-CRYSTALLOGRAPHIC AND                          
 350 CRYSTALLOGRAPHIC OPERATIONS ARE GIVEN.                               
 350                                                                      
 350 BIOMOLECULE: 1                                                       
 350 AUTHOR DETERMINED BIOLOGICAL UNIT: DIMERIC                           
 350 APPLY THE FOLLOWING TO CHAINS: A, B                                  
 350   BIOMT1   1  1.000000  0.000000  0.000000        0.00000            
 350   BIOMT2   1  0.000000  1.000000  0.000000        0.00000            
 350   BIOMT3   1  0.000000  0.000000  1.000000        0.00000            
 465                                                                      
 465 MISSING RESIDUES                                                     
 465 THE FOLLOWING RESIDUES WERE NOT LOCATED IN THE                       
 465 EXPERIMENT. (M=MODEL NUMBER; RES=RESIDUE NAME; C=CHAIN               
 465 IDENTIFIER; SSSEQ=SEQUENCE NUMBER; I=INSERTION CODE.)                
 465                                                                      
 465   M RES C SSSEQI                                                     
 465     MET A     1                                                      
 465     ARG A     2                                                      
 465     VAL A     3                                                      
 465     LEU A     4                                                      
 465     ALA A     5                                                      
 465     LEU A     6                                                      
 465     SER A     7                                                      
 465     ALA A     8                                                      
 465     VAL A     9                                                      
 465     PHE A    10                                                      
 465     LEU A    11                                                      
 465     VAL A    12                                                      
 465     ALA A    13                                                      
 465     SER A    14                                                      
 465     ILE A    15                                                      
 465     ILE A    16                                                      
 465     GLY A    17                                                      
 465     MET A    18                                                      
 465     PRO A    19                                                      
 465     ALA A    20                                                      
 465     VAL A    21                                                      
 465     ALA A    22                                                      
 465     MET B     1                                                      
 465     ARG B     2                                                      
 465     VAL B     3                                                      
 465     LEU B     4                                                      
 465     ALA B     5                                                      
 465     LEU B     6                                                      
 465     SER B     7                                                      
 465     ALA B     8                                                      
 465     VAL B     9                                                      
 465     PHE B    10                                                      
 465     LEU B    11                                                      
 465     VAL B    12                                                      
 465     ALA B    13                                                      
 465     SER B    14                                                      
 465     ILE B    15                                                      
 465     ILE B    16                                                      
 465     GLY B    17                                                      
 465     MET B    18                                                      
 465     PRO B    19                                                      
 465     ALA B    20                                                      
 465     VAL B    21                                                      
 465     ALA B    22                                                      
 465     LYS B    23                                                      
 470                                                                      
 470 MISSING ATOM                                                         
 470 THE FOLLOWING RESIDUES HAVE MISSING ATOMS (M=MODEL NUMBER;           
 470 RES=RESIDUE NAME; C=CHAIN IDENTIFIER; SSEQ=SEQUENCE NUMBER;          
 470 I=INSERTION CODE):                                                   
 470   M RES CSSEQI  ATOMS                                                
 470     LYS A  87    CD   CE   NZ                                        
 470     LYS A 137    CE   NZ                                             
 470     LYS A 180    CE   NZ                                             
 470     GLU B  37    CD   OE1  OE2                                       
 470     LYS B  39    CE   NZ                                             
 470     GLN B  41    CD   OE1  NE2                                       
 470     LYS B  51    CE   NZ                                             
 470     LYS B 137    CG   CD   CE   NZ                                   
 470     ASN B 152    CG   OD1  ND2                                       
 470     VAL B 153    CG1  CG2                                            
 470     LYS B 180    CD   CE   NZ                                        
 470     ARG B 214    CG   CD   NE   CZ   NH1  NH2                        
 470     LYS B 259    CD   CE   NZ                                        
 470     LYS B 262    CE   NZ                                             
 500                                                                      
 500 GEOMETRY AND STEREOCHEMISTRY                                         
 500 SUBTOPIC: TORSION ANGLES                                             
 500                                                                      
 500 TORSION ANGLES OUTSIDE THE EXPECTED RAMACHANDRAN REGIONS:            
 500 (M=MODEL NUMBER; RES=RESIDUE NAME; C=CHAIN IDENTIFIER;               
 500 SSEQ=SEQUENCE NUMBER; I=INSERTION CODE).                             
 500                                                                      
 500 STANDARD TABLE:                                                      
 500 FORMAT:(10X,I3,1X,A3,1X,A1,I4,A1,4X,F7.2,3X,F7.2)                    
 500                                                                      
 500 EXPECTED VALUES: GJ KLEYWEGT AND TA JONES (1996). PHI/PSI-           
 500 CHOLOGY: RAMACHANDRAN REVISITED. STRUCTURE 4, 1395 - 1400            
 500                                                                      
 500  M RES CSSEQI        PSI       PHI                                   
 500    ALA A  69     -133.79     47.30                                   
 500    ASN A 106       59.67    -95.24                                   
 500    SER A 155        0.83   -150.79                                   
 500    ASP A 159       25.14   -148.14                                   
 500    ALA B  69     -130.84     47.68                                   
 500    SER B 155        0.89   -155.37                                   
 500    ASP B 159       22.21   -152.04                                   
 500                                                                      
 500 REMARK: NULL                                                         

>  <DBREF>  (1) 
 6ZXI A    1   265  UNP    Q6XEC0   Q6XEC0_KLEPN     1    265             
 6ZXI B    1   265  UNP    Q6XEC0   Q6XEC0_KLEPN     1    265             

>  <SEQRES>  (1) 
   1 A  265  MET ARG VAL LEU ALA LEU SER ALA VAL PHE LEU VAL ALA          
   2 A  265  SER ILE ILE GLY MET PRO ALA VAL ALA LYS GLU TRP GLN          
   3 A  265  GLU ASN LYS SER TRP ASN ALA HIS PHE THR GLU HIS LYS          
   4 A  265  SER GLN GLY VAL VAL VAL LEU TRP ASN GLU ASN LYS GLN          
   5 A  265  GLN GLY PHE THR ASN ASN LEU LYS ARG ALA ASN GLN ALA          
   6 A  265  PHE LEU PRO ALA SER THR PHE LYS ILE PRO ASN SER LEU          
   7 A  265  ILE ALA LEU ASP LEU GLY VAL VAL LYS ASP GLU HIS GLN          
   8 A  265  VAL PHE LYS TRP ASP GLY GLN THR ARG ASP ILE ALA THR          
   9 A  265  TRP ASN ARG ASP HIS ASN LEU ILE THR ALA MET LYS TYR          
  10 A  265  SER VAL VAL PRO VAL TYR GLN GLU PHE ALA ARG GLN ILE          
  11 A  265  GLY GLU ALA ARG MET SER LYS MET LEU HIS ALA PHE ASP          
  12 A  265  TYR GLY ASN GLU ASP ILE SER GLY ASN VAL ASP SER PHE          
  13 A  265  TRP LEU ASP GLY GLY ILE ARG ILE SER ALA THR GLU GLN          
  14 A  265  ILE SER PHE LEU ARG LYS LEU TYR HIS ASN LYS LEU HIS          
  15 A  265  VAL SER GLU ARG SER GLN ARG ILE VAL LYS GLN ALA MET          
  16 A  265  LEU THR GLU ALA ASN GLY ASP TYR ILE ILE ARG ALA LYS          
  17 A  265  THR GLY TYR SER THR ARG ILE GLU PRO LYS ILE GLY TRP          
  18 A  265  TRP VAL GLY TRP VAL GLU LEU ASP ASP ASN VAL TRP PHE          
  19 A  265  PHE ALA MET ASN MET ASP MET PRO THR SER ASP GLY LEU          
  20 A  265  GLY LEU ARG GLN ALA ILE THR LYS GLU VAL LEU LYS GLN          
  21 A  265  GLU LYS ILE ILE PRO                                          
   1 B  265  MET ARG VAL LEU ALA LEU SER ALA VAL PHE LEU VAL ALA          
   2 B  265  SER ILE ILE GLY MET PRO ALA VAL ALA LYS GLU TRP GLN          
   3 B  265  GLU ASN LYS SER TRP ASN ALA HIS PHE THR GLU HIS LYS          
   4 B  265  SER GLN GLY VAL VAL VAL LEU TRP ASN GLU ASN LYS GLN          
   5 B  265  GLN GLY PHE THR ASN ASN LEU LYS ARG ALA ASN GLN ALA          
   6 B  265  PHE LEU PRO ALA SER THR PHE LYS ILE PRO ASN SER LEU          
   7 B  265  ILE ALA LEU ASP LEU GLY VAL VAL LYS ASP GLU HIS GLN          
   8 B  265  VAL PHE LYS TRP ASP GLY GLN THR ARG ASP ILE ALA THR          
   9 B  265  TRP ASN ARG ASP HIS ASN LEU ILE THR ALA MET LYS TYR          
  10 B  265  SER VAL VAL PRO VAL TYR GLN GLU PHE ALA ARG GLN ILE          
  11 B  265  GLY GLU ALA ARG MET SER LYS MET LEU HIS ALA PHE ASP          
  12 B  265  TYR GLY ASN GLU ASP ILE SER GLY ASN VAL ASP SER PHE          
  13 B  265  TRP LEU ASP GLY GLY ILE ARG ILE SER ALA THR GLU GLN          
  14 B  265  ILE SER PHE LEU ARG LYS LEU TYR HIS ASN LYS LEU HIS          
  15 B  265  VAL SER GLU ARG SER GLN ARG ILE VAL LYS GLN ALA MET          
  16 B  265  LEU THR GLU ALA ASN GLY ASP TYR ILE ILE ARG ALA LYS          
  17 B  265  THR GLY TYR SER THR ARG ILE GLU PRO LYS ILE GLY TRP          
  18 B  265  TRP VAL GLY TRP VAL GLU LEU ASP ASP ASN VAL TRP PHE          
  19 B  265  PHE ALA MET ASN MET ASP MET PRO THR SER ASP GLY LEU          
  20 B  265  GLY LEU ARG GLN ALA ILE THR LYS GLU VAL LEU LYS GLN          
  21 B  265  GLU LYS ILE ILE PRO                                          

>  <HET>  (1) 
 QS8  A 301      15                                                       
 EDO  A 302       4                                                       
 EDO  A 303       4                                                       
 CO2  A 304       3                                                       
  CL  A 305       1                                                       
 QS8  B 301      15                                                       

>  <HETNAM>  (1) 
     QS8 [[(3~{R},6~{R})-6-FLUORANYL-1-METHANOYL-PIPERIDIN-3-             
   2 QS8  YL]AMINO] HYDROGEN SULFATE                                      
     EDO 1,2-ETHANEDIOL                                                   
     CO2 CARBON DIOXIDE                                                   
      CL CHLORIDE ION                                                     

>  <HETSYN>  (1) 
     EDO ETHYLENE GLYCOL                                                  

>  <FORMUL>  (1) 
   3  QS8    2(C6 H11 F N2 O5 S)                                          
   4  EDO    2(C2 H6 O2)                                                  
   6  CO2    C O2                                                         
   7   CL    CL 1-                                                        
   9  HOH   *428(H2 O)                                                    

>  <HELIX>  (1) 
   1 AA1 TRP A   31  GLU A   37  1                                   7    
   2 AA2 ASN A   58  ASN A   63  1                                   6    
   3 AA3 PRO A   68  THR A   71  5                                   4    
   4 AA4 PHE A   72  LEU A   83  1                                  12    
   5 AA5 ILE A  102  ASN A  106  5                                   5    
   6 AA6 ASN A  110  TYR A  117  1                                   8    
   7 AA7 VAL A  119  GLY A  131  1                                  13    
   8 AA8 GLY A  131  ASP A  143  1                                  13    
   9 AA9 SER A  155  GLY A  160  1                                   6    
  10 AB1 ALA A  166  HIS A  178  1                                  13    
  11 AB2 SER A  184  MET A  195  1                                  12    
  12 AB3 THR A  243  LEU A  247  5                                   5    
  13 AB4 GLY A  248  GLU A  261  1                                  14    
  14 AB5 TRP B   31  GLU B   37  1                                   7    
  15 AB6 ASN B   58  ASN B   63  1                                   6    
  16 AB7 PRO B   68  THR B   71  5                                   4    
  17 AB8 PHE B   72  LEU B   83  1                                  12    
  18 AB9 ILE B  102  ASN B  106  5                                   5    
  19 AC1 ASN B  110  TYR B  117  1                                   8    
  20 AC2 VAL B  119  GLY B  131  1                                  13    
  21 AC3 GLY B  131  PHE B  142  1                                  12    
  22 AC4 SER B  155  GLY B  160  1                                   6    
  23 AC5 ALA B  166  HIS B  178  1                                  13    
  24 AC6 SER B  184  MET B  195  1                                  12    
  25 AC7 THR B  243  LEU B  247  5                                   5    
  26 AC8 GLY B  248  GLU B  261  1                                  14    

>  <SHEET>  (1) 
   1 AA1 7 TRP A  25  GLU A  27  0                                        
   2 AA1 7 GLN A  53  THR A  56  1  O  GLY A  54   N  GLN A  26           
   3 AA1 7 GLY A  42  ASN A  48 -1  N  ASN A  48   O  GLN A  53           
   4 AA1 7 VAL A 232  ASP A 240 -1  O  ASN A 238   N  VAL A  43           
   5 AA1 7 ILE A 219  GLU A 227 -1  N  VAL A 226   O  TRP A 233           
   6 AA1 7 ILE A 204  SER A 212 -1  N  ILE A 204   O  GLU A 227           
   7 AA1 7 LEU A 196  ALA A 199 -1  N  GLU A 198   O  ILE A 205           
   1 AA2 2 ALA A  65  PHE A  66  0                                        
   2 AA2 2 ILE A 164  SER A 165 -1  O  ILE A 164   N  PHE A  66           
   1 AA3 7 TRP B  25  GLU B  27  0                                        
   2 AA3 7 GLN B  53  THR B  56  1  O  THR B  56   N  GLN B  26           
   3 AA3 7 GLY B  42  ASN B  48 -1  N  ASN B  48   O  GLN B  53           
   4 AA3 7 VAL B 232  ASP B 240 -1  O  ASN B 238   N  VAL B  43           
   5 AA3 7 ILE B 219  GLU B 227 -1  N  GLY B 224   O  PHE B 235           
   6 AA3 7 ILE B 204  SER B 212 -1  N  ILE B 204   O  GLU B 227           
   7 AA3 7 LEU B 196  ALA B 199 -1  N  GLU B 198   O  ILE B 205           
   1 AA4 2 ALA B  65  PHE B  66  0                                        
   2 AA4 2 ILE B 164  SER B 165 -1  O  ILE B 164   N  PHE B  66           

>  <LINK>  (1) 
       OG  SER A  70                 C7  QS8 A 301     1555   1555  1.51  
       OG  SER B  70                 C7  QS8 B 301     1555   1555  1.48  

>  <CISPEP>  (1) 
   1 GLU A  216    PRO A  217          0        -0.37                     
   2 GLU B  216    PRO B  217          0        -2.00                     

>  <ORIGX1>  (1) 
      1.000000  0.000000  0.000000        0.00000                         

>  <ORIGX2>  (1) 
      0.000000  1.000000  0.000000        0.00000                         

>  <ORIGX3>  (1) 
      0.000000  0.000000  1.000000        0.00000                         

>  <SCALE1>  (1) 
      0.022322  0.000000  0.000000        0.00000                         

>  <SCALE2>  (1) 
      0.000000  0.009514  0.000000        0.00000                         

>  <SCALE3>  (1) 
      0.000000  0.000000  0.007973        0.00000                         

>  <MASTER>  (1) 
      331    0    6   26   18    0    0    6 4399    2   43   42          

$$$$
