start_structures/Ligand_Substrate/Ligand_Complex_Stripped/N95_4LV2.pdb
     RDKit          3D

 21 22  0  0  1  0  0  0  0  0999 V2000
   48.7971   51.8783   46.3359 N   0  0  0  0  0  0  0  0  0  0  0  0
   47.4464   51.3855   46.5422 C   0  0  2  0  0  0  0  0  0  0  0  0
   47.4019   49.8897   46.4398 C   0  0  0  0  0  0  0  0  0  0  0  0
   46.4720   49.2717   46.9373 O   0  0  0  0  0  0  0  0  0  0  0  0
   46.5170   52.0073   45.5077 C   0  0  0  0  0  0  0  0  0  0  0  0
   46.1657   53.3175   45.8772 O   0  0  0  0  0  0  0  0  0  0  0  0
   44.6814   53.4321   45.8585 B   0  0  0  0  0  0  0  0  0  0  0  0
   44.1517   53.0455   44.5360 O   0  0  0  0  0  0  0  0  0  0  0  0
   44.3197   54.8339   46.1125 O   0  0  0  0  0  0  0  0  0  0  0  0
   44.0267   52.5375   46.9908 C   0  0  0  0  0  0  0  0  0  0  0  0
   42.8433   51.8271   46.9050 C   0  0  0  0  0  0  0  0  0  0  0  0
   42.6278   51.2407   48.0980 N   0  0  0  0  0  0  0  0  0  0  0  0
   43.6206   51.5698   48.9090 N   0  0  0  0  0  0  0  0  0  0  0  0
   43.7185   51.1191   50.2665 C   0  0  0  0  0  0  0  0  0  0  0  0
   44.8010   51.4966   51.0694 C   0  0  0  0  0  0  0  0  0  0  0  0
   44.8528   51.0310   52.3818 C   0  0  0  0  0  0  0  0  0  0  0  0
   46.1903   51.4808   53.4169 Cl  0  0  0  0  0  0  0  0  0  0  0  0
   43.8660   50.2280   52.8572 N   0  0  0  0  0  0  0  0  0  0  0  0
   42.8209   49.8687   52.0673 C   0  0  0  0  0  0  0  0  0  0  0  0
   42.7524   50.3124   50.7848 N   0  0  0  0  0  0  0  0  0  0  0  0
   44.4983   52.3718   48.2768 C   0  0  0  0  0  0  0  0  0  0  0  0
  2  1  1  6
  2  5  1  0
  2  3  1  0
  3  4  2  0
  6  7  1  0
  6  5  1  0
  7  8  1  0
  7  9  1  0
  7 10  1  0
 10 11  1  0
 10 21  2  0
 11 12  2  0
 12 13  1  0
 13 14  1  0
 13 21  1  0
 14 15  2  0
 14 20  1  0
 15 16  1  0
 16 17  1  0
 16 18  2  0
 18 19  1  0
 19 20  2  0
M  CHG  1   7  -1
M  END
>  <HEADER>  (1) 
    HYDROLASE/HYDROLASE INHIBITOR           25-JUL-13   4LV2              

>  <TITLE>  (1) 
    AMPC BETA-LACTAMASE IN COMPLEX WITH [1-(6-CHLOROPYRIMIDIN-4-YL)-1H-   
   2 PYRAZOL-4-YL] BORONIC ACID                                           

>  <COMPND>  (1) 
    MOL_ID: 1;                                                            
   2 MOLECULE: BETA-LACTAMASE;                                            
   3 CHAIN: A, B;                                                         
   4 SYNONYM: CEPHALOSPORINASE;                                           
   5 EC: 3.5.2.6;                                                         
   6 ENGINEERED: YES                                                      

>  <SOURCE>  (1) 
    MOL_ID: 1;                                                            
   2 ORGANISM_SCIENTIFIC: ESCHERICHIA COLI;                               
   3 ORGANISM_TAXID: 83333;                                               
   4 STRAIN: K12;                                                         
   5 GENE: AMPA, AMPC, B4150, JW4111;                                     
   6 EXPRESSION_SYSTEM: ESCHERICHIA COLI;                                 
   7 EXPRESSION_SYSTEM_TAXID: 562;                                        
   8 EXPRESSION_SYSTEM_STRAIN: JM109;                                     
   9 EXPRESSION_SYSTEM_VECTOR_TYPE: PLASMID;                              
  10 EXPRESSION_SYSTEM_PLASMID: POGO295                                   

>  <KEYWDS>  (1) 
    AMPC BETA-LACTAMASE, CLASS C, HYDROLASE, BORONIC ACID, COVALENT       
   2 INHIBITOR, HYDROLASE-HYDROLASE INHIBITOR COMPLEX                     

>  <EXPDTA>  (1) 
    X-RAY DIFFRACTION                                                     

>  <AUTHOR>  (1) 
    N.LONDON,O.EIDAM,B.K.SHOICHET                                         

>  <REVDAT>  (1) 
   3   26-NOV-14 4LV2    1       JRNL                                     
   2   05-NOV-14 4LV2    1       JRNL                                     
   1   30-JUL-14 4LV2    0                                                

>  <JRNL>  (1) 
      AUTH   N.LONDON,R.M.MILLER,S.KRISHNAN,K.UCHIDA,J.J.IRWIN,O.EIDAM,   
      AUTH 2 L.GIBOLD,P.CIMERMANCIC,R.BONNET,B.K.SHOICHET,J.TAUNTON       
      TITL   COVALENT DOCKING OF LARGE LIBRARIES FOR THE DISCOVERY OF     
      TITL 2 CHEMICAL PROBES.                                             
      REF    NAT.CHEM.BIOL.                V.  10  1066 2014              
      REFN                   ISSN 1552-4450                               
      PMID   25344815                                                     
      DOI    10.1038/NCHEMBIO.1666                                        

>  <REMARK>  (1) 
   2                                                                      
   2 RESOLUTION.    1.65 ANGSTROMS.                                       
   3                                                                      
   3 REFINEMENT.                                                          
   3   PROGRAM     : PHENIX (PHENIX.REFINE: 1.8_1069)                     
   3   AUTHORS     : PAUL ADAMS,PAVEL AFONINE,VINCENT CHEN,IAN            
   3               : DAVIS,KRESHNA GOPAL,RALF GROSSE-                     
   3               : KUNSTLEVE,LI-WEI HUNG,ROBERT IMMORMINO,              
   3               : TOM IOERGER,AIRLIE MCCOY,ERIK MCKEE,NIGEL            
   3               : MORIARTY,REETAL PAI,RANDY READ,JANE                  
   3               : RICHARDSON,DAVID RICHARDSON,TOD ROMO,JIM             
   3               : SACCHETTINI,NICHOLAS SAUTER,JACOB SMITH,             
   3               : LAURENT STORONI,TOM TERWILLIGER,PETER                
   3               : ZWART                                                
   3                                                                      
   3    REFINEMENT TARGET : ML                                            
   3                                                                      
   3  DATA USED IN REFINEMENT.                                            
   3   RESOLUTION RANGE HIGH (ANGSTROMS) : 1.65                           
   3   RESOLUTION RANGE LOW  (ANGSTROMS) : 45.58                          
   3   MIN(FOBS/SIGMA_FOBS)              : 1.990                          
   3   COMPLETENESS FOR RANGE        (%) : 99.6                           
   3   NUMBER OF REFLECTIONS             : 94599                          
   3                                                                      
   3  FIT TO DATA USED IN REFINEMENT.                                     
   3   R VALUE     (WORKING + TEST SET) : 0.173                           
   3   R VALUE            (WORKING SET) : 0.172                           
   3   FREE R VALUE                     : 0.193                           
   3   FREE R VALUE TEST SET SIZE   (%) : 3.620                           
   3   FREE R VALUE TEST SET COUNT      : 3424                            
   3                                                                      
   3  FIT TO DATA USED IN REFINEMENT (IN BINS).                           
   3   BIN  RESOLUTION RANGE  COMPL.    NWORK NFREE   RWORK  RFREE        
   3     1 45.5780 -  4.7576    0.98     3850   141  0.1593 0.1773        
   3     2  4.7576 -  3.7768    1.00     3811   172  0.1283 0.1469        
   3     3  3.7768 -  3.2996    1.00     3846   143  0.1490 0.1735        
   3     4  3.2996 -  2.9980    1.00     3816   154  0.1724 0.1828        
   3     5  2.9980 -  2.7831    1.00     3769   172  0.1809 0.1910        
   3     6  2.7831 -  2.6190    1.00     3772   159  0.1878 0.2012        
   3     7  2.6190 -  2.4879    1.00     3850   146  0.1841 0.2405        
   3     8  2.4879 -  2.3796    1.00     3819   140  0.1792 0.1971        
   3     9  2.3796 -  2.2880    1.00     3817   135  0.1802 0.1987        
   3    10  2.2880 -  2.2090    1.00     3807   132  0.1703 0.1969        
   3    11  2.2090 -  2.1400    1.00     3772   168  0.1720 0.1920        
   3    12  2.1400 -  2.0788    1.00     3770   159  0.1740 0.2114        
   3    13  2.0788 -  2.0241    1.00     3816   145  0.1749 0.2140        
   3    14  2.0241 -  1.9747    1.00     3825   144  0.1862 0.2160        
   3    15  1.9747 -  1.9298    1.00     3804   150  0.1868 0.2015        
   3    16  1.9298 -  1.8887    1.00     3827   105  0.1884 0.2046        
   3    17  1.8887 -  1.8509    1.00     3811   112  0.2051 0.2307        
   3    18  1.8509 -  1.8160    1.00     3784   147  0.2000 0.1907        
   3    19  1.8160 -  1.7836    1.00     3817   152  0.2027 0.2192        
   3    20  1.7836 -  1.7533    1.00     3793   143  0.2142 0.2658        
   3    21  1.7533 -  1.7251    1.00     3793   118  0.2233 0.2383        
   3    22  1.7251 -  1.6985    1.00     3847    80  0.2356 0.3228        
   3    23  1.6985 -  1.6735    1.00     3771   158  0.2508 0.2804        
   3    24  1.6735 -  1.6500    0.95     3588   149  0.2973 0.2985        
   3                                                                      
   3  BULK SOLVENT MODELLING.                                             
   3   METHOD USED        : FLAT BULK SOLVENT MODEL                       
   3   SOLVENT RADIUS     : 1.11                                          
   3   SHRINKAGE RADIUS   : 0.90                                          
   3   K_SOL              : NULL                                          
   3   B_SOL              : NULL                                          
   3                                                                      
   3  ERROR ESTIMATES.                                                    
   3   COORDINATE ERROR (MAXIMUM-LIKELIHOOD BASED)     : 0.180            
   3   PHASE ERROR (DEGREES, MAXIMUM-LIKELIHOOD BASED) : 21.830           
   3                                                                      
   3  B VALUES.                                                           
   3   FROM WILSON PLOT           (A**2) : 20.90                          
   3   MEAN B VALUE      (OVERALL, A**2) : 24.17                          
   3   OVERALL ANISOTROPIC B VALUE.                                       
   3    B11 (A**2) : NULL                                                 
   3    B22 (A**2) : NULL                                                 
   3    B33 (A**2) : NULL                                                 
   3    B12 (A**2) : NULL                                                 
   3    B13 (A**2) : NULL                                                 
   3    B23 (A**2) : NULL                                                 
   3                                                                      
   3  TWINNING INFORMATION.                                               
   3   FRACTION: NULL                                                     
   3   OPERATOR: NULL                                                     
   3                                                                      
   3  DEVIATIONS FROM IDEAL VALUES.                                       
   3                 RMSD          COUNT                                  
   3   BOND      :  0.013           5767                                  
   3   ANGLE     :  1.474           7922                                  
   3   CHIRALITY :  0.107            867                                  
   3   PLANARITY :  0.008           1021                                  
   3   DIHEDRAL  : 13.984           2052                                  
   3                                                                      
   3  TLS DETAILS                                                         
   3   NUMBER OF TLS GROUPS  : 6                                          
   3   TLS GROUP : 1                                                      
   3    SELECTION: (chain A and resid 4:86)                               
   3    ORIGIN FOR THE GROUP (A):  24.0676  -9.2796  23.2926              
   3    T TENSOR                                                          
   3      T11:   0.1786 T22:   0.1254                                     
   3      T33:   0.1223 T12:  -0.0089                                     
   3      T13:   0.0054 T23:  -0.0096                                     
   3    L TENSOR                                                          
   3      L11:   1.2412 L22:   1.3488                                     
   3      L33:   0.8826 L12:   0.4171                                     
   3      L13:  -0.1534 L23:   0.0132                                     
   3    S TENSOR                                                          
   3      S11:  -0.0130 S12:  -0.1091 S13:  -0.0406                       
   3      S21:   0.1688 S22:  -0.0144 S23:   0.0642                       
   3      S31:   0.1470 S32:  -0.0225 S33:   0.0255                       
   3   TLS GROUP : 2                                                      
   3    SELECTION: (chain A and resid 87:140)                             
   3    ORIGIN FOR THE GROUP (A):  37.9970  13.4419   5.2014              
   3    T TENSOR                                                          
   3      T11:   0.2477 T22:   0.1956                                     
   3      T33:   0.2035 T12:  -0.0222                                     
   3      T13:   0.0343 T23:   0.0333                                     
   3    L TENSOR                                                          
   3      L11:   1.4174 L22:   1.4818                                     
   3      L33:   1.7082 L12:  -0.6146                                     
   3      L13:  -0.4159 L23:  -0.4327                                     
   3    S TENSOR                                                          
   3      S11:   0.0327 S12:   0.3308 S13:   0.2134                       
   3      S21:  -0.4111 S22:  -0.0178 S23:  -0.1998                       
   3      S31:   0.0724 S32:  -0.0124 S33:  -0.0089                       
   3   TLS GROUP : 3                                                      
   3    SELECTION: (chain A and resid 141:361)                            
   3    ORIGIN FOR THE GROUP (A):  31.9371  -1.4120  20.3355              
   3    T TENSOR                                                          
   3      T11:   0.1179 T22:   0.1112                                     
   3      T33:   0.1046 T12:   0.0120                                     
   3      T13:  -0.0072 T23:   0.0028                                     
   3    L TENSOR                                                          
   3      L11:   1.3331 L22:   1.5522                                     
   3      L33:   0.8419 L12:   0.6174                                     
   3      L13:  -0.2099 L23:  -0.1226                                     
   3    S TENSOR                                                          
   3      S11:  -0.0217 S12:  -0.0713 S13:  -0.0298                       
   3      S21:   0.0581 S22:  -0.0071 S23:  -0.0741                       
   3      S31:   0.0566 S32:   0.0712 S33:   0.0256                       
   3   TLS GROUP : 4                                                      
   3    SELECTION: (chain B and resid 4:83)                               
   3    ORIGIN FOR THE GROUP (A):  78.7261 -11.2416  23.8427              
   3    T TENSOR                                                          
   3      T11:   0.1656 T22:   0.1772                                     
   3      T33:   0.1620 T12:   0.0132                                     
   3      T13:  -0.0232 T23:  -0.0011                                     
   3    L TENSOR                                                          
   3      L11:   1.1684 L22:   1.5999                                     
   3      L33:   1.6963 L12:  -0.7674                                     
   3      L13:   0.0752 L23:   0.0186                                     
   3    S TENSOR                                                          
   3      S11:  -0.0328 S12:   0.0464 S13:  -0.1789                       
   3      S21:   0.0880 S22:   0.0686 S23:  -0.0037                       
   3      S31:   0.2222 S32:   0.2783 S33:  -0.0299                       
   3   TLS GROUP : 5                                                      
   3    SELECTION: (chain B and resid 84:182)                             
   3    ORIGIN FOR THE GROUP (A):  64.5339  10.4338  36.2819              
   3    T TENSOR                                                          
   3      T11:   0.2534 T22:   0.2105                                     
   3      T33:   0.1520 T12:  -0.0026                                     
   3      T13:   0.0243 T23:   0.0111                                     
   3    L TENSOR                                                          
   3      L11:   1.0578 L22:   1.3835                                     
   3      L33:   1.0492 L12:  -0.2156                                     
   3      L13:  -0.1746 L23:  -0.0189                                     
   3    S TENSOR                                                          
   3      S11:  -0.0677 S12:  -0.2849 S13:  -0.0037                       
   3      S21:   0.4146 S22:   0.1151 S23:   0.1007                       
   3      S31:  -0.0941 S32:   0.0347 S33:  -0.0599                       
   3   TLS GROUP : 6                                                      
   3    SELECTION: (chain B and resid 183:361)                            
   3    ORIGIN FOR THE GROUP (A):  71.6795  -3.0718  23.1799              
   3    T TENSOR                                                          
   3      T11:   0.1491 T22:   0.1767                                     
   3      T33:   0.1627 T12:  -0.0316                                     
   3      T13:  -0.0119 T23:   0.0020                                     
   3    L TENSOR                                                          
   3      L11:   1.2454 L22:   1.8793                                     
   3      L33:   1.0615 L12:  -1.0140                                     
   3      L13:  -0.1228 L23:   0.0365                                     
   3    S TENSOR                                                          
   3      S11:  -0.0148 S12:   0.0126 S13:  -0.1048                       
   3      S21:   0.0675 S22:   0.0342 S23:   0.0642                       
   3      S31:   0.0826 S32:   0.0891 S33:  -0.0232                       
   3                                                                      
   3  NCS DETAILS                                                         
   3   NUMBER OF NCS GROUPS : NULL                                        
   3                                                                      
   3  OTHER REFINEMENT REMARKS: NULL                                      
   4                                                                      
   4 4LV2 COMPLIES WITH FORMAT V. 3.30, 13-JUL-11                         
 100                                                                      
 100 THIS ENTRY HAS BEEN PROCESSED BY RCSB ON 06-AUG-13.                  
 100 THE RCSB ID CODE IS RCSB081122.                                      
 200                                                                      
 200 EXPERIMENTAL DETAILS                                                 
 200  EXPERIMENT TYPE                : X-RAY DIFFRACTION                  
 200  DATE OF DATA COLLECTION        : 20-APR-13                          
 200  TEMPERATURE           (KELVIN) : 80                                 
 200  PH                             : 8.8                                
 200  NUMBER OF CRYSTALS USED        : 1                                  
 200                                                                      
 200  SYNCHROTRON              (Y/N) : Y                                  
 200  RADIATION SOURCE               : ALS                                
 200  BEAMLINE                       : 8.3.1                              
 200  X-RAY GENERATOR MODEL          : NULL                               
 200  MONOCHROMATIC OR LAUE    (M/L) : M                                  
 200  WAVELENGTH OR RANGE        (A) : 1.11587                            
 200  MONOCHROMATOR                  : DOUBLE FLAT CRYSTAL, SI(111)       
 200  OPTICS                         : NULL                               
 200                                                                      
 200  DETECTOR TYPE                  : CCD                                
 200  DETECTOR MANUFACTURER          : ADSC QUANTUM 315R                  
 200  INTENSITY-INTEGRATION SOFTWARE : XSCALE                             
 200  DATA SCALING SOFTWARE          : XSCALE                             
 200                                                                      
 200  NUMBER OF UNIQUE REFLECTIONS   : 94603                              
 200  RESOLUTION RANGE HIGH      (A) : 1.650                              
 200  RESOLUTION RANGE LOW       (A) : 50.000                             
 200  REJECTION CRITERIA  (SIGMA(I)) : -3.000                             
 200                                                                      
 200 OVERALL.                                                             
 200  COMPLETENESS FOR RANGE     (%) : 99.5                               
 200  DATA REDUNDANCY                : NULL                               
 200  R MERGE                    (I) : 0.05600                            
 200  R SYM                      (I) : NULL                               
 200  <I/SIGMA(I)> FOR THE DATA SET  : 14.7700                            
 200                                                                      
 200 IN THE HIGHEST RESOLUTION SHELL.                                     
 200  HIGHEST RESOLUTION SHELL, RANGE HIGH (A) : 1.65                     
 200  HIGHEST RESOLUTION SHELL, RANGE LOW  (A) : 1.69                     
 200  COMPLETENESS FOR SHELL     (%) : 96.9                               
 200  DATA REDUNDANCY IN SHELL       : NULL                               
 200  R MERGE FOR SHELL          (I) : 0.75300                            
 200  R SYM FOR SHELL            (I) : NULL                               
 200  <I/SIGMA(I)> FOR SHELL         : 2.080                              
 200                                                                      
 200 DIFFRACTION PROTOCOL: SINGLE WAVELENGTH                              
 200 METHOD USED TO DETERMINE THE STRUCTURE: MOLECULAR REPLACEMENT        
 200 SOFTWARE USED: NULL                                                  
 200 STARTING MODEL: PDB ENTRY 1KE4                                       
 200                                                                      
 200 REMARK: NULL                                                         
 280                                                                      
 280 CRYSTAL                                                              
 280 SOLVENT CONTENT, VS   (%): 51.41                                     
 280 MATTHEWS COEFFICIENT, VM (ANGSTROMS**3/DA): 2.53                     
 280                                                                      
 280 CRYSTALLIZATION CONDITIONS: 1.7 M POTASSIUM PHOSPHATE, PH 8.8,       
 280  VAPOR DIFFUSION, HANGING DROP, TEMPERATURE 293K                     
 290                                                                      
 290 CRYSTALLOGRAPHIC SYMMETRY                                            
 290 SYMMETRY OPERATORS FOR SPACE GROUP: C 1 2 1                          
 290                                                                      
 290      SYMOP   SYMMETRY                                                
 290     NNNMMM   OPERATOR                                                
 290       1555   X,Y,Z                                                   
 290       2555   -X,Y,-Z                                                 
 290       3555   X+1/2,Y+1/2,Z                                           
 290       4555   -X+1/2,Y+1/2,-Z                                         
 290                                                                      
 290     WHERE NNN -> OPERATOR NUMBER                                     
 290           MMM -> TRANSLATION VECTOR                                  
 290                                                                      
 290 CRYSTALLOGRAPHIC SYMMETRY TRANSFORMATIONS                            
 290 THE FOLLOWING TRANSFORMATIONS OPERATE ON THE ATOM/HETATM             
 290 RECORDS IN THIS ENTRY TO PRODUCE CRYSTALLOGRAPHICALLY                
 290 RELATED MOLECULES.                                                   
 290   SMTRY1   1  1.000000  0.000000  0.000000        0.00000            
 290   SMTRY2   1  0.000000  1.000000  0.000000        0.00000            
 290   SMTRY3   1  0.000000  0.000000  1.000000        0.00000            
 290   SMTRY1   2 -1.000000  0.000000  0.000000        0.00000            
 290   SMTRY2   2  0.000000  1.000000  0.000000        0.00000            
 290   SMTRY3   2  0.000000  0.000000 -1.000000        0.00000            
 290   SMTRY1   3  1.000000  0.000000  0.000000       58.83500            
 290   SMTRY2   3  0.000000  1.000000  0.000000       39.07000            
 290   SMTRY3   3  0.000000  0.000000  1.000000        0.00000            
 290   SMTRY1   4 -1.000000  0.000000  0.000000       58.83500            
 290   SMTRY2   4  0.000000  1.000000  0.000000       39.07000            
 290   SMTRY3   4  0.000000  0.000000 -1.000000        0.00000            
 290                                                                      
 290 REMARK: NULL                                                         
 300                                                                      
 300 BIOMOLECULE: 1, 2                                                    
 300 SEE REMARK 350 FOR THE AUTHOR PROVIDED AND/OR PROGRAM                
 300 GENERATED ASSEMBLY INFORMATION FOR THE STRUCTURE IN                  
 300 THIS ENTRY. THE REMARK MAY ALSO PROVIDE INFORMATION ON               
 300 BURIED SURFACE AREA.                                                 
 350                                                                      
 350 COORDINATES FOR A COMPLETE MULTIMER REPRESENTING THE KNOWN           
 350 BIOLOGICALLY SIGNIFICANT OLIGOMERIZATION STATE OF THE                
 350 MOLECULE CAN BE GENERATED BY APPLYING BIOMT TRANSFORMATIONS          
 350 GIVEN BELOW.  BOTH NON-CRYSTALLOGRAPHIC AND                          
 350 CRYSTALLOGRAPHIC OPERATIONS ARE GIVEN.                               
 350                                                                      
 350 BIOMOLECULE: 1                                                       
 350 AUTHOR DETERMINED BIOLOGICAL UNIT: MONOMERIC                         
 350 SOFTWARE DETERMINED QUATERNARY STRUCTURE: MONOMERIC                  
 350 SOFTWARE USED: PISA                                                  
 350 APPLY THE FOLLOWING TO CHAINS: A                                     
 350   BIOMT1   1  1.000000  0.000000  0.000000        0.00000            
 350   BIOMT2   1  0.000000  1.000000  0.000000        0.00000            
 350   BIOMT3   1  0.000000  0.000000  1.000000        0.00000            
 350                                                                      
 350 BIOMOLECULE: 2                                                       
 350 AUTHOR DETERMINED BIOLOGICAL UNIT: MONOMERIC                         
 350 SOFTWARE DETERMINED QUATERNARY STRUCTURE: MONOMERIC                  
 350 SOFTWARE USED: PISA                                                  
 350 APPLY THE FOLLOWING TO CHAINS: B                                     
 350   BIOMT1   1  1.000000  0.000000  0.000000        0.00000            
 350   BIOMT2   1  0.000000  1.000000  0.000000        0.00000            
 350   BIOMT3   1  0.000000  0.000000  1.000000        0.00000            
 470                                                                      
 470 MISSING ATOM                                                         
 470 THE FOLLOWING RESIDUES HAVE MISSING ATOMS (M=MODEL NUMBER;           
 470 RES=RESIDUE NAME; C=CHAIN IDENTIFIER; SSEQ=SEQUENCE NUMBER;          
 470 I=INSERTION CODE):                                                   
 470   M RES CSSEQI  ATOMS                                                
 470     GLU A  21    CD   OE1  OE2                                       
 470     GLN A  22    CG   CD   OE1  NE2                                  
 470     LYS A  24    CD   CE   NZ                                        
 470     LYS A  37    CG   CD   CE   NZ                                   
 470     LYS A  51    NZ                                                  
 470     LYS A  84    NZ                                                  
 470     LYS A  91    NZ                                                  
 470     LYS A  99    CG   CD   CE   NZ                                   
 470     LYS A 126    CD   CE   NZ                                        
 470     SER A 128    OG                                                  
 470     LYS A 197    NZ                                                  
 470     ARG A 204    NE   CZ   NH1  NH2                                  
 470     GLU A 205    CD   OE1  OE2                                       
 470     LYS A 207    CD   CE   NZ                                        
 470     LYS A 239    CE   NZ                                             
 470     LEU A 241    CD1  CD2                                            
 470     ASP A 242    CG   OD1  OD2                                       
 470     LYS A 246    CG   CD   CE   NZ                                   
 470     LYS A 290    CD   CE   NZ                                        
 470     LYS A 299    CD   CE   NZ                                        
 470     LYS A 342    NZ                                                  
 470     GLU B  21    CG   CD   OE1  OE2                                  
 470     LYS B  24    CE   NZ                                             
 470     LYS B  37    CG   CD   CE   NZ                                   
 470     LYS B  50    CE   NZ                                             
 470     GLN B  52    CD   OE1  NE2                                       
 470     GLN B  57    CG   CD   OE1  NE2                                  
 470     LYS B  91    NZ                                                  
 470     LYS B  99    NZ                                                  
 470     LYS B 126    CG   CD   CE   NZ                                   
 470     SER B 128    OG                                                  
 470     SER B 129    OG                                                  
 470     LYS B 164    NZ                                                  
 470     LYS B 183    NZ                                                  
 470     GLU B 196    CG   CD   OE1  OE2                                  
 470     ARG B 204    CZ   NH1  NH2                                       
 470     GLU B 205    CG   CD   OE1  OE2                                  
 470     LYS B 207    CG   CD   CE   NZ                                   
 470     LYS B 239    CE   NZ                                             
 470     LEU B 241    CD1  CD2                                            
 470     ASN B 244    CG   OD1  ND2                                       
 470     LYS B 246    CG   CD   CE   NZ                                   
 470     LYS B 299    CD   CE   NZ                                        
 470     GLU B 333    CD   OE1  OE2                                       
 500                                                                      
 500 GEOMETRY AND STEREOCHEMISTRY                                         
 500 SUBTOPIC: CLOSE CONTACTS IN SAME ASYMMETRIC UNIT                     
 500                                                                      
 500 THE FOLLOWING ATOMS ARE IN CLOSE CONTACT.                            
 500                                                                      
 500  ATM1  RES C  SSEQI   ATM2  RES C  SSEQI           DISTANCE          
 500   OD2  ASP A    87     OH   TYR A    92              2.02            
 500   OE1  GLN A   175     NE2  GLN A   180              2.09            
 500                                                                      
 500 REMARK: NULL                                                         
 500                                                                      
 500 GEOMETRY AND STEREOCHEMISTRY                                         
 500 SUBTOPIC: TORSION ANGLES                                             
 500                                                                      
 500 TORSION ANGLES OUTSIDE THE EXPECTED RAMACHANDRAN REGIONS:            
 500 (M=MODEL NUMBER; RES=RESIDUE NAME; C=CHAIN IDENTIFIER;               
 500 SSEQ=SEQUENCE NUMBER; I=INSERTION CODE).                             
 500                                                                      
 500 STANDARD TABLE:                                                      
 500 FORMAT:(10X,I3,1X,A3,1X,A1,I4,A1,4X,F7.2,3X,F7.2)                    
 500                                                                      
 500 EXPECTED VALUES: GJ KLEYWEGT AND TA JONES (1996). PHI/PSI-           
 500 CHOLOGY: RAMACHANDRAN REVISITED. STRUCTURE 4, 1395 - 1400            
 500                                                                      
 500  M RES CSSEQI        PSI       PHI                                   
 500    SER A 154      -70.11    -91.93                                   
 500    VAL A 178      -59.99   -121.90                                   
 500    TYR A 221       17.88   -158.48                                   
 500    ALA A 307      118.07    -39.82                                   
 500    ASN A 341       46.25   -101.90                                   
 500    SER B 154      -66.67    -90.56                                   
 500    VAL B 178      -58.55   -124.96                                   
 500    TYR B 221       19.20   -159.51                                   
 500    ALA B 307      118.39    -39.89                                   
 500    ASN B 341       42.39    -99.16                                   
 500                                                                      
 500 REMARK: NULL                                                         
 800                                                                      
 800 SITE                                                                 
 800 SITE_IDENTIFIER: AC1                                                 
 800 EVIDENCE_CODE: SOFTWARE                                              
 800 SITE_DESCRIPTION: BINDING SITE FOR RESIDUE N95 A 401                 
 800                                                                      
 800 SITE_IDENTIFIER: AC2                                                 
 800 EVIDENCE_CODE: SOFTWARE                                              
 800 SITE_DESCRIPTION: BINDING SITE FOR RESIDUE PO4 A 402                 
 800                                                                      
 800 SITE_IDENTIFIER: AC3                                                 
 800 EVIDENCE_CODE: SOFTWARE                                              
 800 SITE_DESCRIPTION: BINDING SITE FOR RESIDUE N95 B 401                 
 800                                                                      
 800 SITE_IDENTIFIER: AC4                                                 
 800 EVIDENCE_CODE: SOFTWARE                                              
 800 SITE_DESCRIPTION: BINDING SITE FOR RESIDUE PO4 B 402                 
 800                                                                      
 800 SITE_IDENTIFIER: AC5                                                 
 800 EVIDENCE_CODE: SOFTWARE                                              
 800 SITE_DESCRIPTION: BINDING SITE FOR RESIDUE N95 B 403                 
 900                                                                      
 900 RELATED ENTRIES                                                      
 900 RELATED ID: 4LV0   RELATED DB: PDB                                   
 900 RELATED ID: 4LV1   RELATED DB: PDB                                   
 900 RELATED ID: 4LV3   RELATED DB: PDB                                   

>  <DBREF>  (1) 
 4LV2 A    4   361  UNP    P00811   AMPC_ECOLI      20    377             
 4LV2 B    4   361  UNP    P00811   AMPC_ECOLI      20    377             

>  <SEQRES>  (1) 
   1 A  358  ALA PRO GLN GLN ILE ASN ASP ILE VAL HIS ARG THR ILE          
   2 A  358  THR PRO LEU ILE GLU GLN GLN LYS ILE PRO GLY MET ALA          
   3 A  358  VAL ALA VAL ILE TYR GLN GLY LYS PRO TYR TYR PHE THR          
   4 A  358  TRP GLY TYR ALA ASP ILE ALA LYS LYS GLN PRO VAL THR          
   5 A  358  GLN GLN THR LEU PHE GLU LEU GLY SER VAL SER LYS THR          
   6 A  358  PHE THR GLY VAL LEU GLY GLY ASP ALA ILE ALA ARG GLY          
   7 A  358  GLU ILE LYS LEU SER ASP PRO THR THR LYS TYR TRP PRO          
   8 A  358  GLU LEU THR ALA LYS GLN TRP ASN GLY ILE THR LEU LEU          
   9 A  358  HIS LEU ALA THR TYR THR ALA GLY GLY LEU PRO LEU GLN          
  10 A  358  VAL PRO ASP GLU VAL LYS SER SER SER ASP LEU LEU ARG          
  11 A  358  PHE TYR GLN ASN TRP GLN PRO ALA TRP ALA PRO GLY THR          
  12 A  358  GLN ARG LEU TYR ALA ASN SER SER ILE GLY LEU PHE GLY          
  13 A  358  ALA LEU ALA VAL LYS PRO SER GLY LEU SER PHE GLU GLN          
  14 A  358  ALA MET GLN THR ARG VAL PHE GLN PRO LEU LYS LEU ASN          
  15 A  358  HIS THR TRP ILE ASN VAL PRO PRO ALA GLU GLU LYS ASN          
  16 A  358  TYR ALA TRP GLY TYR ARG GLU GLY LYS ALA VAL HIS VAL          
  17 A  358  SER PRO GLY ALA LEU ASP ALA GLU ALA TYR GLY VAL LYS          
  18 A  358  SER THR ILE GLU ASP MET ALA ARG TRP VAL GLN SER ASN          
  19 A  358  LEU LYS PRO LEU ASP ILE ASN GLU LYS THR LEU GLN GLN          
  20 A  358  GLY ILE GLN LEU ALA GLN SER ARG TYR TRP GLN THR GLY          
  21 A  358  ASP MET TYR GLN GLY LEU GLY TRP GLU MET LEU ASP TRP          
  22 A  358  PRO VAL ASN PRO ASP SER ILE ILE ASN GLY SER ASP ASN          
  23 A  358  LYS ILE ALA LEU ALA ALA ARG PRO VAL LYS ALA ILE THR          
  24 A  358  PRO PRO THR PRO ALA VAL ARG ALA SER TRP VAL HIS LYS          
  25 A  358  THR GLY ALA THR GLY GLY PHE GLY SER TYR VAL ALA PHE          
  26 A  358  ILE PRO GLU LYS GLU LEU GLY ILE VAL MET LEU ALA ASN          
  27 A  358  LYS ASN TYR PRO ASN PRO ALA ARG VAL ASP ALA ALA TRP          
  28 A  358  GLN ILE LEU ASN ALA LEU GLN                                  
   1 B  358  ALA PRO GLN GLN ILE ASN ASP ILE VAL HIS ARG THR ILE          
   2 B  358  THR PRO LEU ILE GLU GLN GLN LYS ILE PRO GLY MET ALA          
   3 B  358  VAL ALA VAL ILE TYR GLN GLY LYS PRO TYR TYR PHE THR          
   4 B  358  TRP GLY TYR ALA ASP ILE ALA LYS LYS GLN PRO VAL THR          
   5 B  358  GLN GLN THR LEU PHE GLU LEU GLY SER VAL SER LYS THR          
   6 B  358  PHE THR GLY VAL LEU GLY GLY ASP ALA ILE ALA ARG GLY          
   7 B  358  GLU ILE LYS LEU SER ASP PRO THR THR LYS TYR TRP PRO          
   8 B  358  GLU LEU THR ALA LYS GLN TRP ASN GLY ILE THR LEU LEU          
   9 B  358  HIS LEU ALA THR TYR THR ALA GLY GLY LEU PRO LEU GLN          
  10 B  358  VAL PRO ASP GLU VAL LYS SER SER SER ASP LEU LEU ARG          
  11 B  358  PHE TYR GLN ASN TRP GLN PRO ALA TRP ALA PRO GLY THR          
  12 B  358  GLN ARG LEU TYR ALA ASN SER SER ILE GLY LEU PHE GLY          
  13 B  358  ALA LEU ALA VAL LYS PRO SER GLY LEU SER PHE GLU GLN          
  14 B  358  ALA MET GLN THR ARG VAL PHE GLN PRO LEU LYS LEU ASN          
  15 B  358  HIS THR TRP ILE ASN VAL PRO PRO ALA GLU GLU LYS ASN          
  16 B  358  TYR ALA TRP GLY TYR ARG GLU GLY LYS ALA VAL HIS VAL          
  17 B  358  SER PRO GLY ALA LEU ASP ALA GLU ALA TYR GLY VAL LYS          
  18 B  358  SER THR ILE GLU ASP MET ALA ARG TRP VAL GLN SER ASN          
  19 B  358  LEU LYS PRO LEU ASP ILE ASN GLU LYS THR LEU GLN GLN          
  20 B  358  GLY ILE GLN LEU ALA GLN SER ARG TYR TRP GLN THR GLY          
  21 B  358  ASP MET TYR GLN GLY LEU GLY TRP GLU MET LEU ASP TRP          
  22 B  358  PRO VAL ASN PRO ASP SER ILE ILE ASN GLY SER ASP ASN          
  23 B  358  LYS ILE ALA LEU ALA ALA ARG PRO VAL LYS ALA ILE THR          
  24 B  358  PRO PRO THR PRO ALA VAL ARG ALA SER TRP VAL HIS LYS          
  25 B  358  THR GLY ALA THR GLY GLY PHE GLY SER TYR VAL ALA PHE          
  26 B  358  ILE PRO GLU LYS GLU LEU GLY ILE VAL MET LEU ALA ASN          
  27 B  358  LYS ASN TYR PRO ASN PRO ALA ARG VAL ASP ALA ALA TRP          
  28 B  358  GLN ILE LEU ASN ALA LEU GLN                                  

>  <HET>  (1) 
 N95  A 401      15                                                       
 PO4  A 402       5                                                       
 N95  B 401      15                                                       
 PO4  B 402       5                                                       
 N95  B 403      15                                                       

>  <HETNAM>  (1) 
     N95 [1-(6-CHLOROPYRIMIDIN-4-YL)-1H-PYRAZOL-4-YL]BORONIC              
   2 N95  ACID                                                            
     PO4 PHOSPHATE ION                                                    

>  <FORMUL>  (1) 
   3  N95    3(C7 H6 B CL N4 O2)                                          
   4  PO4    2(O4 P 3-)                                                   
   8  HOH   *428(H2 O)                                                    

>  <HELIX>  (1) 
   1   1 PRO A    5  LYS A   24  1                                  20    
   2   2 VAL A   65  ARG A   80  1                                  16    
   3   3 PRO A   88  TRP A   93  1                                   6    
   4   4 ALA A   98  ASN A  102  5                                   5    
   5   5 THR A  105  THR A  111  1                                   7    
   6   6 SER A  127  TRP A  138  1                                  12    
   7   7 ALA A  151  VAL A  163  1                                  13    
   8   8 SER A  169  VAL A  178  1                                  10    
   9   9 PRO A  192  TYR A  199  5                                   8    
  10  10 LEU A  216  GLY A  222  1                                   7    
  11  11 THR A  226  LYS A  239  1                                  14    
  12  12 PRO A  240  ILE A  243  5                                   4    
  13  13 GLU A  245  GLN A  256  1                                  12    
  14  14 ASN A  279  SER A  287  1                                   9    
  15  15 ASP A  288  LEU A  293  1                                   6    
  16  16 PRO A  330  GLU A  333  5                                   4    
  17  17 PRO A  345  GLN A  361  1                                  17    
  18  18 PRO B    5  LYS B   24  1                                  20    
  19  19 VAL B   65  ARG B   80  1                                  16    
  20  20 PRO B   88  TRP B   93  1                                   6    
  21  21 ALA B   98  ASN B  102  5                                   5    
  22  22 THR B  105  THR B  111  1                                   7    
  23  23 SER B  127  TRP B  138  1                                  12    
  24  24 ALA B  151  VAL B  163  1                                  13    
  25  25 LYS B  164  GLY B  167  5                                   4    
  26  26 SER B  169  VAL B  178  1                                  10    
  27  27 PRO B  192  TYR B  199  5                                   8    
  28  28 LEU B  216  TYR B  221  1                                   6    
  29  29 THR B  226  LYS B  239  1                                  14    
  30  30 PRO B  240  ILE B  243  5                                   4    
  31  31 GLU B  245  GLN B  256  1                                  12    
  32  32 ASN B  279  SER B  287  1                                   9    
  33  33 ASP B  288  LEU B  293  1                                   6    
  34  34 PRO B  330  GLU B  333  5                                   4    
  35  35 PRO B  345  GLN B  361  1                                  17    

>  <SHEET>  (1) 
   1   A10 GLN A  52  PRO A  53  0                                        
   2   A10 LYS A  37  ASP A  47 -1  N  ALA A  46   O  GLN A  52           
   3   A10 GLY A  27  TYR A  34 -1  N  TYR A  34   O  LYS A  37           
   4   A10 LEU A 334  ALA A 340 -1  O  LEU A 339   N  ALA A  29           
   5   A10 GLY A 323  ILE A 329 -1  N  TYR A 325   O  MET A 338           
   6   A10 SER A 311  ALA A 318 -1  N  GLY A 317   O  SER A 324           
   7   A10 GLU A 272  ASP A 275 -1  N  LEU A 274   O  TRP A 312           
   8   A10 MET A 265  GLN A 267 -1  N  TYR A 266   O  MET A 273           
   9   A10 ARG A 258  THR A 262 -1  N  TYR A 259   O  GLN A 267           
  10   A10 LYS A 299  THR A 305 -1  O  THR A 305   N  ARG A 258           
   1   B 3 PHE A  60  GLU A  61  0                                        
   2   B 3 LYS A 224  SER A 225 -1  O  SER A 225   N  PHE A  60           
   3   B 3 THR A 187  TRP A 188 -1  N  TRP A 188   O  LYS A 224           
   1   C 2 GLN A 147  ARG A 148  0                                        
   2   C 2 ARG A 296  PRO A 297 -1  O  ARG A 296   N  ARG A 148           
   1   D 2 GLY A 202  ARG A 204  0                                        
   2   D 2 LYS A 207  VAL A 209 -1  O  VAL A 209   N  GLY A 202           
   1   E10 GLN B  52  PRO B  53  0                                        
   2   E10 LYS B  37  ASP B  47 -1  N  ALA B  46   O  GLN B  52           
   3   E10 GLY B  27  TYR B  34 -1  N  TYR B  34   O  LYS B  37           
   4   E10 LEU B 334  ALA B 340 -1  O  LEU B 339   N  ALA B  29           
   5   E10 GLY B 323  ILE B 329 -1  N  ILE B 329   O  LEU B 334           
   6   E10 SER B 311  ALA B 318 -1  N  GLY B 317   O  SER B 324           
   7   E10 GLU B 272  ASP B 275 -1  N  LEU B 274   O  TRP B 312           
   8   E10 MET B 265  GLN B 267 -1  N  TYR B 266   O  MET B 273           
   9   E10 ARG B 258  THR B 262 -1  N  THR B 262   O  MET B 265           
  10   E10 LYS B 299  THR B 305 -1  O  THR B 305   N  ARG B 258           
   1   F 2 PHE B  60  GLU B  61  0                                        
   2   F 2 LYS B 224  SER B 225 -1  O  SER B 225   N  PHE B  60           
   1   G 2 GLN B 147  ARG B 148  0                                        
   2   G 2 ARG B 296  PRO B 297 -1  O  ARG B 296   N  ARG B 148           
   1   H 2 GLY B 202  ARG B 204  0                                        
   2   H 2 LYS B 207  VAL B 209 -1  O  VAL B 209   N  GLY B 202           

>  <LINK>  (1) 
       OG  SER B  64                 B03 N95 B 401     1555   1555  1.47  
       OG  SER A  64                 B03 N95 A 401     1555   1555  1.46  

>  <CISPEP>  (1) 
   1 TRP A  276    PRO A  277          0         7.37                     
   2 THR A  302    PRO A  303          0        -4.91                     
   3 TRP B  276    PRO B  277          0         6.57                     
   4 THR B  302    PRO B  303          0        -1.06                     

>  <SITE>  (1) 
   1 AC1  8 SER A  64  GLN A 120  TYR A 150  ASN A 152                    
   2 AC1  8 TYR A 221  GLY A 317  ALA A 318  HOH A 637                    
   1 AC2  4 TRP A  93  LEU A 157  LEU A 161  LYS A 164                    
   1 AC3  9 SER B  64  GLN B 120  TYR B 150  ASN B 152                    
   2 AC3  9 TYR B 221  GLY B 317  ALA B 318  HOH B 600                    
   3 AC3  9 HOH B 602                                                     
   1 AC4  7 ARG A 133  HIS A 186  HOH A 610  HOH A 668                    
   2 AC4  7 LYS B 290  HOH B 615  HOH B 681                               
   1 AC5 13 LYS A 290  LEU A 293  ALA A 294  ALA A 295                    
   2 AC5 13 HOH A 662  HIS B  13  TYR B  40  PHE B  41                    
   3 AC5 13 THR B  42  TRP B  43  GLN B  56  HOH B 603                    
   4 AC5 13 HOH B 653                                                     

>  <ORIGX1>  (1) 
      1.000000  0.000000  0.000000        0.00000                         

>  <ORIGX2>  (1) 
      0.000000  1.000000  0.000000        0.00000                         

>  <ORIGX3>  (1) 
      0.000000  0.000000  1.000000        0.00000                         

>  <SCALE1>  (1) 
      0.008498  0.000000  0.004196        0.00000                         

>  <SCALE2>  (1) 
      0.000000  0.012798  0.000000        0.00000                         

>  <SCALE3>  (1) 
      0.000000  0.000000  0.011468        0.00000                         

>  <ANISOU>  (1) 
  468  N   SER A  64     1394   1213   1445    -83   -142    -80       N  
  469  CA  SER A  64     1359   1174   1403    -84   -142    -94       C  
  470  C   SER A  64     1446   1261   1428    -72   -133   -126       C  
  471  O   SER A  64     1511   1340   1499    -75   -139   -136       O  
  472  CB  SER A  64     1583   1374   1701    -81   -142   -106       C  
  473  OG  SER A  64     1577   1364   1759    -89   -159    -60       O  

>  <MASTER>  (1) 
      426    0    5   35   33    0   12    6 5968    2   57   56          

$$$$
