start_structures/Ligand_Substrate/Ligand_Complex_Stripped/JXG_6MPQ.pdb
     RDKit          3D

 24 24  0  0  1  0  0  0  0  0999 V2000
   48.7965   51.8775   46.3359 N   0  0  0  0  0  0  0  0  0  0  0  0
   47.4471   51.3815   46.5443 C   0  0  2  0  0  0  0  0  0  0  0  0
   47.4045   49.8864   46.4403 C   0  0  0  0  0  0  0  0  0  0  0  0
   46.4742   49.2678   46.9364 O   0  0  0  0  0  0  0  0  0  0  0  0
   46.5143   52.0022   45.5113 C   0  0  0  0  0  0  0  0  0  0  0  0
   46.1635   53.3345   45.8717 O   0  0  0  0  0  0  0  0  0  0  0  0
   41.3272   59.6013   48.7935 O   0  0  0  0  0  0  0  0  0  0  0  0
   40.6282   58.1032   49.1995 S   0  0  0  0  0  0  0  0  0  0  0  0
   40.2971   58.0559   50.8685 O   0  0  0  0  0  0  0  0  0  0  0  0
   39.1742   57.9143   48.3367 O   0  0  0  0  0  0  0  0  0  0  0  0
   41.6916   56.8380   48.7845 O   0  0  0  0  0  0  0  0  0  0  0  0
   42.8115   57.0697   49.5162 N   0  0  0  0  0  0  0  0  0  0  0  0
   43.9793   56.7464   48.7005 C   0  0  1  0  0  0  0  0  0  0  0  0
   43.9916   55.2671   48.2978 C   0  0  0  0  0  0  0  0  0  0  0  0
   44.0803   57.6499   47.5054 C   0  0  0  0  0  0  0  0  0  0  0  0
   44.9037   57.3337   46.5019 C   0  0  0  0  0  0  0  0  0  0  0  0
   45.0244   58.2475   45.3316 C   0  0  0  0  0  0  0  0  0  0  0  0
   45.7033   56.0567   46.5426 C   0  0  1  0  0  0  0  0  0  0  0  0
   47.0604   56.2772   47.1370 C   0  0  0  0  0  0  0  0  0  0  0  0
   48.0771   56.2298   46.3976 O   0  0  0  0  0  0  0  0  0  0  0  0
   47.2111   56.5516   48.5264 N   0  0  0  0  0  0  0  0  0  0  0  0
   44.9830   54.9842   47.2478 N   0  0  0  0  0  0  0  0  0  0  0  0
   45.2481   53.6205   46.8901 C   0  0  0  0  0  0  0  0  0  0  0  0
   44.6556   52.6819   47.4917 O   0  0  0  0  0  0  0  0  0  0  0  0
  2  1  1  6
  2  3  1  0
  2  5  1  0
  3  4  2  0
  6 23  1  0
  6  5  1  0
  7  8  1  0
  8  9  1  0
  8 10  1  0
  8 11  1  0
 11 12  1  0
 13 12  1  6
 13 14  1  0
 13 15  1  0
 14 22  1  0
 15 16  2  0
 16 17  1  0
 16 18  1  0
 18 19  1  1
 18 22  1  0
 19 20  2  0
 19 21  1  0
 22 23  1  0
 23 24  2  0
M  END
>  <HEADER>  (1) 
    HYDROLASE/HYDROLASE INHIBITOR           08-OCT-18   6MPQ              

>  <TITLE>  (1) 
    1.95 ANG CRYSTAL STRUCTURE OF OXA-24/40 BETA-LACTAMASE IN COMPLEX THE 
   2 INHIBITOR ETX2514                                                    

>  <COMPND>  (1) 
    MOL_ID: 1;                                                            
   2 MOLECULE: BETA-LACTAMASE;                                            
   3 CHAIN: A;                                                            
   4 SYNONYM: BETA-LACTAMASE OXA-33,BETALACTAMASE OXA24,CARBAPENEM-       
   5 HYDROLYZING BETA-LACTAMASE OXA-40,CARBAPENEM-HYDROLYZING             
   6 OXACILLINASE,CARBAPENEM-HYDROLYZING OXACILLINASE OXA-40,CARBAPENEMASE
   7 OXA-24,CLASS D BETA-LACTAMASE OXA-40,OXA24 B-LACTAMASE,OXA40;        
   8 ENGINEERED: YES                                                      

>  <SOURCE>  (1) 
    MOL_ID: 1;                                                            
   2 ORGANISM_SCIENTIFIC: ACINETOBACTER BAUMANNII;                        
   3 ORGANISM_TAXID: 470;                                                 
   4 GENE: BLAOXA-33, BLA-OXA-40, BLAOXA-24, BLAOXA-40, OXA-24, OXA40;    
   5 EXPRESSION_SYSTEM: ESCHERICHIA COLI;                                 
   6 EXPRESSION_SYSTEM_TAXID: 562                                         

>  <KEYWDS>  (1) 
    BETA-LACTAMASE, INHIBITOR, COMPLEX, HYDROLASE, HYDROLASE-HYDROLASE    
   2 INHIBITOR COMPLEX                                                    

>  <EXPDTA>  (1) 
    X-RAY DIFFRACTION                                                     

>  <AUTHOR>  (1) 
    F.VAN DEN AKKER,V.KUMAR                                               

>  <REVDAT>  (1) 
   2   27-MAR-19 6MPQ    1       JRNL                                     
   1   27-FEB-19 6MPQ    0                                                

>  <JRNL>  (1) 
      AUTH   M.D.BARNES,V.KUMAR,C.R.BETHEL,S.H.MOUSSA,J.O'DONNELL,        
      AUTH 2 J.D.RUTTER,C.E.GOOD,K.M.HUJER,A.M.HUJER,S.H.MARSHALL,        
      AUTH 3 B.N.KREISWIRTH,S.S.RICHTER,P.N.RATHER,M.R.JACOBS,            
      AUTH 4 K.M.PAPP-WALLACE,F.VAN DEN AKKER,R.A.BONOMO                  
      TITL   TARGETING MULTIDRUG-RESISTANTACINETOBACTERSPP.: SULBACTAM    
      TITL 2 AND THE DIAZABICYCLOOCTENONE BETA-LACTAMASE INHIBITOR        
      TITL 3 ETX2514 AS A NOVEL THERAPEUTIC AGENT.                        
      REF    MBIO                          V.  10       2019              
      REFN                   ESSN 2150-7511                               
      PMID   30862744                                                     
      DOI    10.1128/MBIO.00159-19                                        

>  <REMARK>  (1) 
   2                                                                      
   2 RESOLUTION.    1.95 ANGSTROMS.                                       
   3                                                                      
   3 REFINEMENT.                                                          
   3   PROGRAM     : REFMAC 5.8.0135                                      
   3   AUTHORS     : MURSHUDOV,SKUBAK,LEBEDEV,PANNU,STEINER,              
   3               : NICHOLLS,WINN,LONG,VAGIN                             
   3                                                                      
   3    REFINEMENT TARGET : NULL                                          
   3                                                                      
   3  DATA USED IN REFINEMENT.                                            
   3   RESOLUTION RANGE HIGH (ANGSTROMS) : 1.95                           
   3   RESOLUTION RANGE LOW  (ANGSTROMS) : 37.50                          
   3   DATA CUTOFF            (SIGMA(F)) : 0.000                          
   3   COMPLETENESS FOR RANGE        (%) : 99.3                           
   3   NUMBER OF REFLECTIONS             : 32479                          
   3                                                                      
   3  FIT TO DATA USED IN REFINEMENT.                                     
   3   CROSS-VALIDATION METHOD          : THROUGHOUT                      
   3   FREE R VALUE TEST SET SELECTION  : RANDOM                          
   3   R VALUE     (WORKING + TEST SET) : 0.188                           
   3   R VALUE            (WORKING SET) : 0.187                           
   3   FREE R VALUE                     : 0.210                           
   3   FREE R VALUE TEST SET SIZE   (%) : 5.100                           
   3   FREE R VALUE TEST SET COUNT      : 1735                            
   3                                                                      
   3  FIT IN THE HIGHEST RESOLUTION BIN.                                  
   3   TOTAL NUMBER OF BINS USED           : 20                           
   3   BIN RESOLUTION RANGE HIGH       (A) : 1.95                         
   3   BIN RESOLUTION RANGE LOW        (A) : 2.00                         
   3   REFLECTION IN BIN     (WORKING SET) : 2346                         
   3   BIN COMPLETENESS (WORKING+TEST) (%) : 99.04                        
   3   BIN R VALUE           (WORKING SET) : 0.3160                       
   3   BIN FREE R VALUE SET COUNT          : 121                          
   3   BIN FREE R VALUE                    : 0.3030                       
   3                                                                      
   3  NUMBER OF NON-HYDROGEN ATOMS USED IN REFINEMENT.                    
   3   PROTEIN ATOMS            : 1950                                    
   3   NUCLEIC ACID ATOMS       : 0                                       
   3   HETEROGEN ATOMS          : 19                                      
   3   SOLVENT ATOMS            : 174                                     
   3                                                                      
   3  B VALUES.                                                           
   3   FROM WILSON PLOT           (A**2) : NULL                           
   3   MEAN B VALUE      (OVERALL, A**2) : 32.09                          
   3   OVERALL ANISOTROPIC B VALUE.                                       
   3    B11 (A**2) : -2.25000                                             
   3    B22 (A**2) : -2.25000                                             
   3    B33 (A**2) : 4.50000                                              
   3    B12 (A**2) : 0.00000                                              
   3    B13 (A**2) : 0.00000                                              
   3    B23 (A**2) : 0.00000                                              
   3                                                                      
   3  ESTIMATED OVERALL COORDINATE ERROR.                                 
   3   ESU BASED ON R VALUE                            (A): 0.112         
   3   ESU BASED ON FREE R VALUE                       (A): 0.108         
   3   ESU BASED ON MAXIMUM LIKELIHOOD                 (A): 0.103         
   3   ESU FOR B VALUES BASED ON MAXIMUM LIKELIHOOD (A**2): 4.079         
   3                                                                      
   3 CORRELATION COEFFICIENTS.                                            
   3   CORRELATION COEFFICIENT FO-FC      : 0.961                         
   3   CORRELATION COEFFICIENT FO-FC FREE : 0.955                         
   3                                                                      
   3  RMS DEVIATIONS FROM IDEAL VALUES        COUNT    RMS    WEIGHT      
   3   BOND LENGTHS REFINED ATOMS        (A):  2046 ; 0.012 ; 0.019       
   3   BOND LENGTHS OTHERS               (A):  2002 ; 0.002 ; 0.020       
   3   BOND ANGLES REFINED ATOMS   (DEGREES):  2765 ; 1.505 ; 1.965       
   3   BOND ANGLES OTHERS          (DEGREES):  4619 ; 1.177 ; 3.001       
   3   TORSION ANGLES, PERIOD 1    (DEGREES):   254 ; 5.275 ; 5.000       
   3   TORSION ANGLES, PERIOD 2    (DEGREES):    90 ;39.353 ;25.556       
   3   TORSION ANGLES, PERIOD 3    (DEGREES):   380 ;14.271 ;15.000       
   3   TORSION ANGLES, PERIOD 4    (DEGREES):     7 ;19.581 ;15.000       
   3   CHIRAL-CENTER RESTRAINTS       (A**3):   305 ; 0.117 ; 0.200       
   3   GENERAL PLANES REFINED ATOMS      (A):  2299 ; 0.006 ; 0.020       
   3   GENERAL PLANES OTHERS             (A):   460 ; 0.002 ; 0.020       
   3   NON-BONDED CONTACTS REFINED ATOMS (A):  NULL ;  NULL ;  NULL       
   3   NON-BONDED CONTACTS OTHERS        (A):  NULL ;  NULL ;  NULL       
   3   NON-BONDED TORSION REFINED ATOMS  (A):  NULL ;  NULL ;  NULL       
   3   NON-BONDED TORSION OTHERS         (A):  NULL ;  NULL ;  NULL       
   3   H-BOND (X...Y) REFINED ATOMS      (A):  NULL ;  NULL ;  NULL       
   3   H-BOND (X...Y) OTHERS             (A):  NULL ;  NULL ;  NULL       
   3   POTENTIAL METAL-ION REFINED ATOMS (A):  NULL ;  NULL ;  NULL       
   3   POTENTIAL METAL-ION OTHERS        (A):  NULL ;  NULL ;  NULL       
   3   SYMMETRY VDW REFINED ATOMS        (A):  NULL ;  NULL ;  NULL       
   3   SYMMETRY VDW OTHERS               (A):  NULL ;  NULL ;  NULL       
   3   SYMMETRY H-BOND REFINED ATOMS     (A):  NULL ;  NULL ;  NULL       
   3   SYMMETRY H-BOND OTHERS            (A):  NULL ;  NULL ;  NULL       
   3   SYMMETRY METAL-ION REFINED ATOMS  (A):  NULL ;  NULL ;  NULL       
   3   SYMMETRY METAL-ION OTHERS         (A):  NULL ;  NULL ;  NULL       
   3                                                                      
   3  ISOTROPIC THERMAL FACTOR RESTRAINTS.     COUNT   RMS    WEIGHT      
   3   MAIN-CHAIN BOND REFINED ATOMS  (A**2):  NULL ;  NULL ;  NULL       
   3   MAIN-CHAIN BOND OTHER ATOMS    (A**2):  NULL ;  NULL ;  NULL       
   3   MAIN-CHAIN ANGLE REFINED ATOMS (A**2):  NULL ;  NULL ;  NULL       
   3   MAIN-CHAIN ANGLE OTHER ATOMS   (A**2):  NULL ;  NULL ;  NULL       
   3   SIDE-CHAIN BOND REFINED ATOMS  (A**2):  NULL ;  NULL ;  NULL       
   3   SIDE-CHAIN BOND OTHER ATOMS    (A**2):  NULL ;  NULL ;  NULL       
   3   SIDE-CHAIN ANGLE REFINED ATOMS (A**2):  NULL ;  NULL ;  NULL       
   3   SIDE-CHAIN ANGLE OTHER ATOMS   (A**2):  NULL ;  NULL ;  NULL       
   3   LONG RANGE B REFINED ATOMS     (A**2):  NULL ;  NULL ;  NULL       
   3   LONG RANGE B OTHER ATOMS       (A**2):  NULL ;  NULL ;  NULL       
   3                                                                      
   3 ANISOTROPIC THERMAL FACTOR RESTRAINTS.    COUNT   RMS   WEIGHT       
   3   RIGID-BOND RESTRAINTS          (A**2):  NULL ;  NULL ;  NULL       
   3   SPHERICITY; FREE ATOMS         (A**2):  NULL ;  NULL ;  NULL       
   3   SPHERICITY; BONDED ATOMS       (A**2):  NULL ;  NULL ;  NULL       
   3                                                                      
   3  NCS RESTRAINTS STATISTICS                                           
   3   NUMBER OF DIFFERENT NCS GROUPS : NULL                              
   3                                                                      
   3  TLS DETAILS                                                         
   3   NUMBER OF TLS GROUPS  : NULL                                       
   3                                                                      
   3  BULK SOLVENT MODELLING.                                             
   3   METHOD USED : NULL                                                 
   3   PARAMETERS FOR MASK CALCULATION                                    
   3   VDW PROBE RADIUS   : 1.20                                          
   3   ION PROBE RADIUS   : 0.80                                          
   3   SHRINKAGE RADIUS   : 0.80                                          
   3                                                                      
   3  OTHER REFINEMENT REMARKS: HYDROGENS HAVE BEEN ADDED IN THE RIDING   
   3  POSITIONS U VALUES : REFINED INDIVIDUALLY                           
   4                                                                      
   4 6MPQ COMPLIES WITH FORMAT V. 3.30, 13-JUL-11                         
 100                                                                      
 100 THIS ENTRY HAS BEEN PROCESSED BY RCSB ON 09-OCT-18.                  
 100 THE DEPOSITION ID IS D_1000237366.                                   
 200                                                                      
 200 EXPERIMENTAL DETAILS                                                 
 200  EXPERIMENT TYPE                : X-RAY DIFFRACTION                  
 200  DATE OF DATA COLLECTION        : 10-FEB-17                          
 200  TEMPERATURE           (KELVIN) : 100                                
 200  PH                             : 7.5                                
 200  NUMBER OF CRYSTALS USED        : 1                                  
 200                                                                      
 200  SYNCHROTRON              (Y/N) : Y                                  
 200  RADIATION SOURCE               : SSRL                               
 200  BEAMLINE                       : BL9-2                              
 200  X-RAY GENERATOR MODEL          : NULL                               
 200  MONOCHROMATIC OR LAUE    (M/L) : M                                  
 200  WAVELENGTH OR RANGE        (A) : 0.9795                             
 200  MONOCHROMATOR                  : NULL                               
 200  OPTICS                         : NULL                               
 200                                                                      
 200  DETECTOR TYPE                  : PIXEL                              
 200  DETECTOR MANUFACTURER          : DECTRIS PILATUS3 S 6M              
 200  INTENSITY-INTEGRATION SOFTWARE : XDS                                
 200  DATA SCALING SOFTWARE          : AIMLESS 0.5.31                     
 200                                                                      
 200  NUMBER OF UNIQUE REFLECTIONS   : 34248                              
 200  RESOLUTION RANGE HIGH      (A) : 1.950                              
 200  RESOLUTION RANGE LOW       (A) : 72.520                             
 200  REJECTION CRITERIA  (SIGMA(I)) : NULL                               
 200                                                                      
 200 OVERALL.                                                             
 200  COMPLETENESS FOR RANGE     (%) : 99.6                               
 200  DATA REDUNDANCY                : 6.600                              
 200  R MERGE                    (I) : 0.10500                            
 200  R SYM                      (I) : NULL                               
 200  <I/SIGMA(I)> FOR THE DATA SET  : 11.3000                            
 200                                                                      
 200 IN THE HIGHEST RESOLUTION SHELL.                                     
 200  HIGHEST RESOLUTION SHELL, RANGE HIGH (A) : 1.95                     
 200  HIGHEST RESOLUTION SHELL, RANGE LOW  (A) : 2.00                     
 200  COMPLETENESS FOR SHELL     (%) : 99.3                               
 200  DATA REDUNDANCY IN SHELL       : 6.50                               
 200  R MERGE FOR SHELL          (I) : 0.79100                            
 200  R SYM FOR SHELL            (I) : NULL                               
 200  <I/SIGMA(I)> FOR SHELL         : NULL                               
 200                                                                      
 200 DIFFRACTION PROTOCOL: SINGLE WAVELENGTH                              
 200 METHOD USED TO DETERMINE THE STRUCTURE: MOLECULAR REPLACEMENT        
 200 SOFTWARE USED: MOLREP                                                
 200 STARTING MODEL: 3MBZ                                                 
 200                                                                      
 200 REMARK: NULL                                                         
 280                                                                      
 280 CRYSTAL                                                              
 280 SOLVENT CONTENT, VS   (%): 70.18                                     
 280 MATTHEWS COEFFICIENT, VM (ANGSTROMS**3/DA): 4.12                     
 280                                                                      
 280 CRYSTALLIZATION CONDITIONS: OF 0.1 M HEPES SODIUM SALT PH 7.5, 10%   
 280  (V/V) ISOPROPANOL AND 20% (W/V) PEG 4000., VAPOR DIFFUSION,         
 280  TEMPERATURE 293K                                                    
 290                                                                      
 290 CRYSTALLOGRAPHIC SYMMETRY                                            
 290 SYMMETRY OPERATORS FOR SPACE GROUP: P 41 21 2                        
 290                                                                      
 290      SYMOP   SYMMETRY                                                
 290     NNNMMM   OPERATOR                                                
 290       1555   X,Y,Z                                                   
 290       2555   -X,-Y,Z+1/2                                             
 290       3555   -Y+1/2,X+1/2,Z+1/4                                      
 290       4555   Y+1/2,-X+1/2,Z+3/4                                      
 290       5555   -X+1/2,Y+1/2,-Z+1/4                                     
 290       6555   X+1/2,-Y+1/2,-Z+3/4                                     
 290       7555   Y,X,-Z                                                  
 290       8555   -Y,-X,-Z+1/2                                            
 290                                                                      
 290     WHERE NNN -> OPERATOR NUMBER                                     
 290           MMM -> TRANSLATION VECTOR                                  
 290                                                                      
 290 CRYSTALLOGRAPHIC SYMMETRY TRANSFORMATIONS                            
 290 THE FOLLOWING TRANSFORMATIONS OPERATE ON THE ATOM/HETATM             
 290 RECORDS IN THIS ENTRY TO PRODUCE CRYSTALLOGRAPHICALLY                
 290 RELATED MOLECULES.                                                   
 290   SMTRY1   1  1.000000  0.000000  0.000000        0.00000            
 290   SMTRY2   1  0.000000  1.000000  0.000000        0.00000            
 290   SMTRY3   1  0.000000  0.000000  1.000000        0.00000            
 290   SMTRY1   2 -1.000000  0.000000  0.000000        0.00000            
 290   SMTRY2   2  0.000000 -1.000000  0.000000        0.00000            
 290   SMTRY3   2  0.000000  0.000000  1.000000       43.50250            
 290   SMTRY1   3  0.000000 -1.000000  0.000000       51.28100            
 290   SMTRY2   3  1.000000  0.000000  0.000000       51.28100            
 290   SMTRY3   3  0.000000  0.000000  1.000000       21.75125            
 290   SMTRY1   4  0.000000  1.000000  0.000000       51.28100            
 290   SMTRY2   4 -1.000000  0.000000  0.000000       51.28100            
 290   SMTRY3   4  0.000000  0.000000  1.000000       65.25375            
 290   SMTRY1   5 -1.000000  0.000000  0.000000       51.28100            
 290   SMTRY2   5  0.000000  1.000000  0.000000       51.28100            
 290   SMTRY3   5  0.000000  0.000000 -1.000000       21.75125            
 290   SMTRY1   6  1.000000  0.000000  0.000000       51.28100            
 290   SMTRY2   6  0.000000 -1.000000  0.000000       51.28100            
 290   SMTRY3   6  0.000000  0.000000 -1.000000       65.25375            
 290   SMTRY1   7  0.000000  1.000000  0.000000        0.00000            
 290   SMTRY2   7  1.000000  0.000000  0.000000        0.00000            
 290   SMTRY3   7  0.000000  0.000000 -1.000000        0.00000            
 290   SMTRY1   8  0.000000 -1.000000  0.000000        0.00000            
 290   SMTRY2   8 -1.000000  0.000000  0.000000        0.00000            
 290   SMTRY3   8  0.000000  0.000000 -1.000000       43.50250            
 290                                                                      
 290 REMARK: NULL                                                         
 300                                                                      
 300 BIOMOLECULE: 1                                                       
 300 SEE REMARK 350 FOR THE AUTHOR PROVIDED AND/OR PROGRAM                
 300 GENERATED ASSEMBLY INFORMATION FOR THE STRUCTURE IN                  
 300 THIS ENTRY. THE REMARK MAY ALSO PROVIDE INFORMATION ON               
 300 BURIED SURFACE AREA.                                                 
 350                                                                      
 350 COORDINATES FOR A COMPLETE MULTIMER REPRESENTING THE KNOWN           
 350 BIOLOGICALLY SIGNIFICANT OLIGOMERIZATION STATE OF THE                
 350 MOLECULE CAN BE GENERATED BY APPLYING BIOMT TRANSFORMATIONS          
 350 GIVEN BELOW.  BOTH NON-CRYSTALLOGRAPHIC AND                          
 350 CRYSTALLOGRAPHIC OPERATIONS ARE GIVEN.                               
 350                                                                      
 350 BIOMOLECULE: 1                                                       
 350 AUTHOR DETERMINED BIOLOGICAL UNIT: MONOMERIC                         
 350 SOFTWARE DETERMINED QUATERNARY STRUCTURE: MONOMERIC                  
 350 SOFTWARE USED: PISA                                                  
 350 APPLY THE FOLLOWING TO CHAINS: A                                     
 350   BIOMT1   1  1.000000  0.000000  0.000000        0.00000            
 350   BIOMT2   1  0.000000  1.000000  0.000000        0.00000            
 350   BIOMT3   1  0.000000  0.000000  1.000000        0.00000            
 375                                                                      
 375 SPECIAL POSITION                                                     
 375 THE FOLLOWING ATOMS ARE FOUND TO BE WITHIN 0.15 ANGSTROMS            
 375 OF A SYMMETRY RELATED ATOM AND ARE ASSUMED TO BE ON SPECIAL          
 375 POSITIONS.                                                           
 375                                                                      
 375 ATOM RES CSSEQI                                                      
 375      HOH A 570  LIES ON A SPECIAL POSITION.                          
 500                                                                      
 500 GEOMETRY AND STEREOCHEMISTRY                                         
 500 SUBTOPIC: COVALENT BOND ANGLES                                       
 500                                                                      
 500 THE STEREOCHEMICAL PARAMETERS OF THE FOLLOWING RESIDUES              
 500 HAVE VALUES WHICH DEVIATE FROM EXPECTED VALUES BY MORE               
 500 THAN 6*RMSD (M=MODEL NUMBER; RES=RESIDUE NAME; C=CHAIN               
 500 IDENTIFIER; SSEQ=SEQUENCE NUMBER; I=INSERTION CODE).                 
 500                                                                      
 500 STANDARD TABLE:                                                      
 500 FORMAT: (10X,I3,1X,A3,1X,A1,I4,A1,3(1X,A4,2X),12X,F5.1)              
 500                                                                      
 500 EXPECTED VALUES PROTEIN: ENGH AND HUBER, 1999                        
 500 EXPECTED VALUES NUCLEIC ACID: CLOWNEY ET AL 1996                     
 500                                                                      
 500  M RES CSSEQI ATM1   ATM2   ATM3                                     
 500    ARG A 190   NE  -  CZ  -  NH1 ANGL. DEV. =  -3.4 DEGREES          
 500    ARG A 190   NE  -  CZ  -  NH2 ANGL. DEV. =   3.1 DEGREES          
 500                                                                      
 500 REMARK: NULL                                                         
 500                                                                      
 500 GEOMETRY AND STEREOCHEMISTRY                                         
 500 SUBTOPIC: TORSION ANGLES                                             
 500                                                                      
 500 TORSION ANGLES OUTSIDE THE EXPECTED RAMACHANDRAN REGIONS:            
 500 (M=MODEL NUMBER; RES=RESIDUE NAME; C=CHAIN IDENTIFIER;               
 500 SSEQ=SEQUENCE NUMBER; I=INSERTION CODE).                             
 500                                                                      
 500 STANDARD TABLE:                                                      
 500 FORMAT:(10X,I3,1X,A3,1X,A1,I4,A1,4X,F7.2,3X,F7.2)                    
 500                                                                      
 500 EXPECTED VALUES: GJ KLEYWEGT AND TA JONES (1996). PHI/PSI-           
 500 CHOLOGY: RAMACHANDRAN REVISITED. STRUCTURE 4, 1395 - 1400            
 500                                                                      
 500  M RES CSSEQI        PSI       PHI                                   
 500    ALA A  80     -134.80     51.24                                   
 500    THR A 157        9.41     59.80                                   
 500    ASN A 165       10.15   -143.02                                   
 500    ASN A 211     -128.64     48.37                                   
 500                                                                      
 500 REMARK: NULL                                                         
 800                                                                      
 800 SITE                                                                 
 800 SITE_IDENTIFIER: AC1                                                 
 800 EVIDENCE_CODE: SOFTWARE                                              
 800 SITE_DESCRIPTION: binding site for residue JXG A 301                 
 800                                                                      
 800 SITE_IDENTIFIER: AC2                                                 
 800 EVIDENCE_CODE: SOFTWARE                                              
 800 SITE_DESCRIPTION: binding site for residue CL A 302                  

>  <DBREF>  (1) 
 6MPQ A   31   275  UNP    Q8RLA6   Q8RLA6_ACIBA    31    275             

>  <SEQRES>  (1) 
   1 A  245  PHE HIS ILE SER SER GLN GLN HIS GLU LYS ALA ILE LYS          
   2 A  245  SER TYR PHE ASP GLU ALA GLN THR GLN GLY VAL ILE ILE          
   3 A  245  ILE LYS GLU GLY LYS ASN LEU SER THR TYR GLY ASN ALA          
   4 A  245  LEU ALA ARG ALA ASN LYS GLU TYR VAL PRO ALA SER THR          
   5 A  245  PHE KCX MET LEU ASN ALA LEU ILE GLY LEU GLU ASN HIS          
   6 A  245  LYS ALA THR THR ASN GLU ILE PHE LYS TRP ASP GLY LYS          
   7 A  245  LYS ARG THR TYR PRO MET TRP GLU LYS ASP MET THR LEU          
   8 A  245  GLY GLU ALA MET ALA LEU SER ALA VAL PRO VAL TYR GLN          
   9 A  245  GLU LEU ALA ARG ARG THR GLY LEU GLU LEU MET GLN LYS          
  10 A  245  GLU VAL LYS ARG VAL ASN PHE GLY ASN THR ASN ILE GLY          
  11 A  245  THR GLN VAL ASP ASN PHE TRP LEU VAL GLY PRO LEU LYS          
  12 A  245  ILE THR PRO VAL GLN GLU VAL ASN PHE ALA ASP ASP LEU          
  13 A  245  ALA HIS ASN ARG LEU PRO PHE LYS LEU GLU THR GLN GLU          
  14 A  245  GLU VAL LYS LYS MET LEU LEU ILE LYS GLU VAL ASN GLY          
  15 A  245  SER LYS ILE TYR ALA LYS SER GLY TRP GLY MET GLY VAL          
  16 A  245  THR PRO GLN VAL GLY TRP LEU THR GLY TRP VAL GLU GLN          
  17 A  245  ALA ASN GLY LYS LYS ILE PRO PHE SER LEU ASN LEU GLU          
  18 A  245  MET LYS GLU GLY MET SER GLY SER ILE ARG ASN GLU ILE          
  19 A  245  THR TYR LYS SER LEU GLU ASN LEU GLY ILE ILE                  

>  <MODRES>  (1) 
 6MPQ KCX A   84  LYS  MODIFIED RESIDUE                                   

>  <HET>  (1) 
 KCX  A  84      17                                                       
 JXG  A 301      18                                                       
  CL  A 302       1                                                       

>  <HETNAM>  (1) 
     KCX LYSINE NZ-CARBOXYLIC ACID                                        
     JXG (2S,5R)-1-FORMYL-3-METHYL-5-[(SULFOOXY)AMINO]-1,2,5,6-           
   2 JXG  TETRAHYDROPYRIDINE-2-CARBOXAMIDE                                
      CL CHLORIDE ION                                                     

>  <HETSYN>  (1) 
     JXG ETX2514 BOUND FORM                                               

>  <FORMUL>  (1) 
   1  KCX    C7 H14 N2 O4                                                 
   2  JXG    C8 H13 N3 O6 S                                               
   3   CL    CL 1-                                                        
   4  HOH   *174(H2 O)                                                    

>  <HELIX>  (1) 
   1 AA1 SER A   34  ALA A   49  1                                  16    
   2 AA2 ALA A   69  LYS A   75  5                                   7    
   3 AA3 PRO A   79  THR A   82  5                                   4    
   4 AA4 PHE A   83  ASN A   94  1                                  12    
   5 AA5 TYR A  112  GLU A  116  5                                   5    
   6 AA6 THR A  120  SER A  128  1                                   9    
   7 AA7 ALA A  129  GLY A  141  1                                  13    
   8 AA8 GLY A  141  ASN A  153  1                                  13    
   9 AA9 THR A  175  HIS A  188  1                                  14    
  10 AB1 LYS A  194  MET A  204  1                                  11    
  11 AB2 GLY A  258  LEU A  272  1                                  15    

>  <SHEET>  (1) 
   1 AA1 6 ASN A  62  GLY A  67  0                                        
   2 AA1 6 GLY A  53  GLU A  59 -1  N  ILE A  57   O  SER A  64           
   3 AA1 6 LYS A 243  MET A 252 -1  O  ASN A 249   N  VAL A  54           
   4 AA1 6 GLN A 228  GLU A 237 -1  N  LEU A 232   O  LEU A 248           
   5 AA1 6 SER A 213  GLY A 222 -1  N  LYS A 214   O  GLU A 237           
   6 AA1 6 LEU A 206  VAL A 210 -1  N  LYS A 208   O  ILE A 215           

>  <LINK>  (1) 
       OG  SER A  81                 CAH JXG A 301     1555   1555  1.36  
       C   PHE A  83                 N   KCX A  84     1555   1555  1.34  
       C   KCX A  84                 N   MET A  85     1555   1555  1.34  

>  <CISPEP>  (1) 
   1 GLY A  170    PRO A  171          0         5.35                     
   2 THR A  226    PRO A  227          0        -9.17                     

>  <SITE>  (1) 
   1 AC1 11 ALA A  80  SER A  81  SER A 128  VAL A 130                    
   2 AC1 11 LYS A 218  SER A 219  GLY A 220  TRP A 221                    
   3 AC1 11 MET A 223  ARG A 261  HOH A 532                               
   1 AC2  2 KCX A  84  TRP A 167                                          

>  <ORIGX1>  (1) 
      1.000000  0.000000  0.000000        0.00000                         

>  <ORIGX2>  (1) 
      0.000000  1.000000  0.000000        0.00000                         

>  <ORIGX3>  (1) 
      0.000000  0.000000  1.000000        0.00000                         

>  <SCALE1>  (1) 
      0.009750  0.000000  0.000000        0.00000                         

>  <SCALE2>  (1) 
      0.000000  0.009750  0.000000        0.00000                         

>  <SCALE3>  (1) 
      0.000000  0.000000  0.011494        0.00000                         

>  <MASTER>  (1) 
      311    0    3   11    6    0    4    6 2143    1   38   19          

$$$$
