start_structures/Ligand_Substrate/Ligand_Complex_Stripped/DH4_3NC8.pdb
     RDKit          3D

 18 18  0  0  1  0  0  0  0  0999 V2000
   48.8008   51.8729   46.3373 N   0  0  0  0  0  0  0  0  0  0  0  0
   47.4488   51.3834   46.5433 C   0  0  2  0  0  0  0  0  0  0  0  0
   47.4038   49.8877   46.4403 C   0  0  0  0  0  0  0  0  0  0  0  0
   46.4735   49.2696   46.9369 O   0  0  0  0  0  0  0  0  0  0  0  0
   46.5163   52.0038   45.5092 C   0  0  0  0  0  0  0  0  0  0  0  0
   46.1568   53.3328   45.8730 O   0  0  0  0  0  0  0  0  0  0  0  0
   46.9132   54.4436   45.4942 C   0  0  0  0  0  0  0  0  0  0  0  0
   45.5661   56.3907   44.9979 N   0  0  0  0  0  0  0  0  0  0  0  0
   47.9157   54.3182   44.7406 O   0  0  0  0  0  0  0  0  0  0  0  0
   46.4984   55.8024   45.9462 C   0  0  0  0  0  0  0  0  0  0  0  0
   44.3293   56.0096   44.9574 C   0  0  0  0  0  0  0  0  0  0  0  0
   40.8647   58.2562   43.5776 C   0  0  0  0  0  0  0  0  0  0  0  0
   41.8930   59.1846   42.9455 C   0  0  0  0  0  0  0  0  0  0  0  0
   41.0815   56.8206   43.1236 C   0  0  0  0  0  0  0  0  0  0  0  0
   43.2849   58.9764   43.5264 C   0  0  0  0  0  0  0  0  0  0  0  0
   42.0273   56.0894   44.0732 C   0  0  0  0  0  0  0  0  0  0  0  0
   43.8493   57.6278   43.1057 C   0  0  0  0  0  0  0  0  0  0  0  0
   43.4063   56.5807   44.0269 N   0  0  0  0  0  0  0  0  0  0  0  0
  2  1  1  6
  2  3  1  0
  3  4  2  0
  5  2  1  0
  6  7  1  0
  6  5  1  0
  7  9  2  0
  7 10  1  0
  8 10  1  0
  8 11  2  0
 11 18  1  0
 12 13  1  0
 12 14  1  0
 13 15  1  0
 14 16  1  0
 15 17  1  0
 16 18  1  0
 17 18  1  0
M  END
>  <HEADER>  (1) 
    HYDROLASE/ANTIBIOTIC                    04-JUN-10   3NC8              

>  <TITLE>  (1) 
    CRYSTAL STRUCTURE OF BLAC-E166A COVALENTLY BOUND WITH MECILLINAM      

>  <COMPND>  (1) 
    MOL_ID: 1;                                                            
   2 MOLECULE: BETA-LACTAMASE;                                            
   3 CHAIN: A;                                                            
   4 SYNONYM: PENICILLINASE;                                              
   5 EC: 3.5.2.6;                                                         
   6 ENGINEERED: YES;                                                     
   7 MUTATION: YES                                                        

>  <SOURCE>  (1) 
    MOL_ID: 1;                                                            
   2 ORGANISM_SCIENTIFIC: MYCOBACTERIUM TUBERCULOSIS;                     
   3 ORGANISM_TAXID: 1773;                                                
   4 GENE: BLAA, BLAC, MT2128, MTCY49.07C, RV2068C;                       
   5 EXPRESSION_SYSTEM: ESCHERICHIA COLI;                                 
   6 EXPRESSION_SYSTEM_TAXID: 562;                                        
   7 EXPRESSION_SYSTEM_STRAIN: ROSETTA2;                                  
   8 EXPRESSION_SYSTEM_VECTOR: PLASMID;                                   
   9 EXPRESSION_SYSTEM_PLASMID: PET28A                                    

>  <KEYWDS>  (1) 
    PENICILLIN BINDING PROTEIN, BETA-LACTAM COVALENT ADDUCT, HYDROLASE-   
   2 ANTIBIOTIC COMPLEX                                                   

>  <EXPDTA>  (1) 
    X-RAY DIFFRACTION                                                     

>  <AUTHOR>  (1) 
    L.W.TREMBLAY,J.S.BLANCHARD                                            

>  <REVDAT>  (1) 
   3   08-NOV-17 3NC8    1       REMARK                                   
   2   16-MAY-12 3NC8    1       HEADER KEYWDS REMARK HETNAM              
   2 2                   1       HETSYN FORMUL                            
   1   14-DEC-11 3NC8    0                                                

>  <JRNL>  (1) 
      AUTH   L.W.TREMBLAY,J.S.BLANCHARD                                   
      TITL   BLAC-E166A COVALENTLY BOUND WITH CEPHALOSPORINS AND          
      TITL 2 PENICILLINS                                                  
      REF    TO BE PUBLISHED                                              
      REFN                                                                

>  <REMARK>  (1) 
   2                                                                      
   2 RESOLUTION.    1.50 ANGSTROMS.                                       
   3                                                                      
   3 REFINEMENT.                                                          
   3   PROGRAM     : REFMAC 5.5.0102                                      
   3   AUTHORS     : MURSHUDOV,VAGIN,DODSON                               
   3                                                                      
   3    REFINEMENT TARGET : MAXIMUM LIKELIHOOD                            
   3                                                                      
   3  DATA USED IN REFINEMENT.                                            
   3   RESOLUTION RANGE HIGH (ANGSTROMS) : 1.50                           
   3   RESOLUTION RANGE LOW  (ANGSTROMS) : 50.00                          
   3   DATA CUTOFF            (SIGMA(F)) : 0.000                          
   3   COMPLETENESS FOR RANGE        (%) : 99.9                           
   3   NUMBER OF REFLECTIONS             : 41602                          
   3                                                                      
   3  FIT TO DATA USED IN REFINEMENT.                                     
   3   CROSS-VALIDATION METHOD          : THROUGHOUT                      
   3   FREE R VALUE TEST SET SELECTION  : RANDOM                          
   3   R VALUE     (WORKING + TEST SET) : 0.160                           
   3   R VALUE            (WORKING SET) : 0.159                           
   3   FREE R VALUE                     : 0.190                           
   3   FREE R VALUE TEST SET SIZE   (%) : 5.000                           
   3   FREE R VALUE TEST SET COUNT      : 2091                            
   3                                                                      
   3  FIT IN THE HIGHEST RESOLUTION BIN.                                  
   3   TOTAL NUMBER OF BINS USED           : 20                           
   3   BIN RESOLUTION RANGE HIGH       (A) : 1.50                         
   3   BIN RESOLUTION RANGE LOW        (A) : 1.54                         
   3   REFLECTION IN BIN     (WORKING SET) : 2851                         
   3   BIN COMPLETENESS (WORKING+TEST) (%) : 99.61                        
   3   BIN R VALUE           (WORKING SET) : 0.2050                       
   3   BIN FREE R VALUE SET COUNT          : 175                          
   3   BIN FREE R VALUE                    : 0.2280                       
   3                                                                      
   3  NUMBER OF NON-HYDROGEN ATOMS USED IN REFINEMENT.                    
   3   PROTEIN ATOMS            : 1984                                    
   3   NUCLEIC ACID ATOMS       : 0                                       
   3   HETEROGEN ATOMS          : 27                                      
   3   SOLVENT ATOMS            : 326                                     
   3                                                                      
   3  B VALUES.                                                           
   3   FROM WILSON PLOT           (A**2) : NULL                           
   3   MEAN B VALUE      (OVERALL, A**2) : 12.73                          
   3   OVERALL ANISOTROPIC B VALUE.                                       
   3    B11 (A**2) : 0.13000                                              
   3    B22 (A**2) : 0.20000                                              
   3    B33 (A**2) : -0.33000                                             
   3    B12 (A**2) : 0.00000                                              
   3    B13 (A**2) : 0.00000                                              
   3    B23 (A**2) : 0.00000                                              
   3                                                                      
   3  ESTIMATED OVERALL COORDINATE ERROR.                                 
   3   ESU BASED ON R VALUE                            (A): NULL          
   3   ESU BASED ON FREE R VALUE                       (A): 0.071         
   3   ESU BASED ON MAXIMUM LIKELIHOOD                 (A): 0.041         
   3   ESU FOR B VALUES BASED ON MAXIMUM LIKELIHOOD (A**2): 1.070         
   3                                                                      
   3 CORRELATION COEFFICIENTS.                                            
   3   CORRELATION COEFFICIENT FO-FC      : 0.966                         
   3   CORRELATION COEFFICIENT FO-FC FREE : 0.951                         
   3                                                                      
   3  RMS DEVIATIONS FROM IDEAL VALUES        COUNT    RMS    WEIGHT      
   3   BOND LENGTHS REFINED ATOMS        (A):  2059 ; 0.011 ; 0.022       
   3   BOND LENGTHS OTHERS               (A):  NULL ;  NULL ;  NULL       
   3   BOND ANGLES REFINED ATOMS   (DEGREES):  2810 ; 1.398 ; 1.978       
   3   BOND ANGLES OTHERS          (DEGREES):  NULL ;  NULL ;  NULL       
   3   TORSION ANGLES, PERIOD 1    (DEGREES):   266 ; 6.179 ; 5.000       
   3   TORSION ANGLES, PERIOD 2    (DEGREES):    88 ;37.867 ;22.955       
   3   TORSION ANGLES, PERIOD 3    (DEGREES):   305 ;10.651 ;15.000       
   3   TORSION ANGLES, PERIOD 4    (DEGREES):    20 ;22.700 ;15.000       
   3   CHIRAL-CENTER RESTRAINTS       (A**3):   320 ; 0.085 ; 0.200       
   3   GENERAL PLANES REFINED ATOMS      (A):  1582 ; 0.008 ; 0.021       
   3   GENERAL PLANES OTHERS             (A):  NULL ;  NULL ;  NULL       
   3   NON-BONDED CONTACTS REFINED ATOMS (A):  NULL ;  NULL ;  NULL       
   3   NON-BONDED CONTACTS OTHERS        (A):  NULL ;  NULL ;  NULL       
   3   NON-BONDED TORSION REFINED ATOMS  (A):  NULL ;  NULL ;  NULL       
   3   NON-BONDED TORSION OTHERS         (A):  NULL ;  NULL ;  NULL       
   3   H-BOND (X...Y) REFINED ATOMS      (A):  NULL ;  NULL ;  NULL       
   3   H-BOND (X...Y) OTHERS             (A):  NULL ;  NULL ;  NULL       
   3   POTENTIAL METAL-ION REFINED ATOMS (A):  NULL ;  NULL ;  NULL       
   3   POTENTIAL METAL-ION OTHERS        (A):  NULL ;  NULL ;  NULL       
   3   SYMMETRY VDW REFINED ATOMS        (A):  NULL ;  NULL ;  NULL       
   3   SYMMETRY VDW OTHERS               (A):  NULL ;  NULL ;  NULL       
   3   SYMMETRY H-BOND REFINED ATOMS     (A):  NULL ;  NULL ;  NULL       
   3   SYMMETRY H-BOND OTHERS            (A):  NULL ;  NULL ;  NULL       
   3   SYMMETRY METAL-ION REFINED ATOMS  (A):  NULL ;  NULL ;  NULL       
   3   SYMMETRY METAL-ION OTHERS         (A):  NULL ;  NULL ;  NULL       
   3                                                                      
   3  ISOTROPIC THERMAL FACTOR RESTRAINTS.     COUNT   RMS    WEIGHT      
   3   MAIN-CHAIN BOND REFINED ATOMS  (A**2):  1325 ; 0.757 ; 1.500       
   3   MAIN-CHAIN BOND OTHER ATOMS    (A**2):  NULL ;  NULL ;  NULL       
   3   MAIN-CHAIN ANGLE REFINED ATOMS (A**2):  2116 ; 1.333 ; 2.000       
   3   MAIN-CHAIN ANGLE OTHER ATOMS   (A**2):  NULL ;  NULL ;  NULL       
   3   SIDE-CHAIN BOND REFINED ATOMS  (A**2):   734 ; 2.166 ; 3.000       
   3   SIDE-CHAIN BOND OTHER ATOMS    (A**2):  NULL ;  NULL ;  NULL       
   3   SIDE-CHAIN ANGLE REFINED ATOMS (A**2):   694 ; 3.545 ; 4.500       
   3   SIDE-CHAIN ANGLE OTHER ATOMS   (A**2):  NULL ;  NULL ;  NULL       
   3   LONG RANGE B REFINED ATOMS     (A**2):  NULL ;  NULL ;  NULL       
   3   LONG RANGE B OTHER ATOMS       (A**2):  NULL ;  NULL ;  NULL       
   3                                                                      
   3 ANISOTROPIC THERMAL FACTOR RESTRAINTS.    COUNT   RMS   WEIGHT       
   3   RIGID-BOND RESTRAINTS          (A**2):  NULL ;  NULL ;  NULL       
   3   SPHERICITY; FREE ATOMS         (A**2):  NULL ;  NULL ;  NULL       
   3   SPHERICITY; BONDED ATOMS       (A**2):  NULL ;  NULL ;  NULL       
   3                                                                      
   3  NCS RESTRAINTS STATISTICS                                           
   3   NUMBER OF DIFFERENT NCS GROUPS : NULL                              
   3                                                                      
   3  TLS DETAILS                                                         
   3   NUMBER OF TLS GROUPS  : NULL                                       
   3                                                                      
   3  BULK SOLVENT MODELLING.                                             
   3   METHOD USED : MASK                                                 
   3   PARAMETERS FOR MASK CALCULATION                                    
   3   VDW PROBE RADIUS   : 1.40                                          
   3   ION PROBE RADIUS   : 0.80                                          
   3   SHRINKAGE RADIUS   : 0.80                                          
   3                                                                      
   3  OTHER REFINEMENT REMARKS: HYDROGENS HAVE BEEN ADDED IN THE RIDING   
   3  POSITIONS. U VALUES REFINED INDIVIDUALLY                            
   4                                                                      
   4 3NC8 COMPLIES WITH FORMAT V. 3.30, 13-JUL-11                         
 100                                                                      
 100 THIS ENTRY HAS BEEN PROCESSED BY RCSB ON 25-JUN-10.                  
 100 THE DEPOSITION ID IS D_1000059647.                                   
 200                                                                      
 200 EXPERIMENTAL DETAILS                                                 
 200  EXPERIMENT TYPE                : X-RAY DIFFRACTION                  
 200  DATE OF DATA COLLECTION        : 2009; 2009                         
 200  TEMPERATURE           (KELVIN) : 100; 100                           
 200  PH                             : 7.5                                
 200  NUMBER OF CRYSTALS USED        : 1                                  
 200                                                                      
 200  SYNCHROTRON              (Y/N) : Y; Y                               
 200  RADIATION SOURCE               : NSLS; NSLS                         
 200  BEAMLINE                       : X12C; X29A                         
 200  X-RAY GENERATOR MODEL          : NULL; NULL                         
 200  MONOCHROMATIC OR LAUE    (M/L) : NULL; NULL                         
 200  WAVELENGTH OR RANGE        (A) : 1.000; 1.000                       
 200  MONOCHROMATOR                  : SI(111) CHANNEL CUT; SI(111)       
 200                                   CHANNEL CUT                        
 200  OPTICS                         : NULL; NULL                         
 200                                                                      
 200  DETECTOR TYPE                  : CCD; CCD                           
 200  DETECTOR MANUFACTURER          : ADSC QUANTUM 210; ADSC QUANTUM     
 200                                   210                                
 200  INTENSITY-INTEGRATION SOFTWARE : HKL-2000                           
 200  DATA SCALING SOFTWARE          : HKL-2000                           
 200                                                                      
 200  NUMBER OF UNIQUE REFLECTIONS   : 41689                              
 200  RESOLUTION RANGE HIGH      (A) : 1.500                              
 200  RESOLUTION RANGE LOW       (A) : 50.440                             
 200  REJECTION CRITERIA  (SIGMA(I)) : 0.000                              
 200                                                                      
 200 OVERALL.                                                             
 200  COMPLETENESS FOR RANGE     (%) : 100.0                              
 200  DATA REDUNDANCY                : 7.800                              
 200  R MERGE                    (I) : 0.14200                            
 200  R SYM                      (I) : NULL                               
 200  <I/SIGMA(I)> FOR THE DATA SET  : 22.2000                            
 200                                                                      
 200 IN THE HIGHEST RESOLUTION SHELL.                                     
 200  HIGHEST RESOLUTION SHELL, RANGE HIGH (A) : 1.50                     
 200  HIGHEST RESOLUTION SHELL, RANGE LOW  (A) : 1.54                     
 200  COMPLETENESS FOR SHELL     (%) : 100.0                              
 200  DATA REDUNDANCY IN SHELL       : 7.70                               
 200  R MERGE FOR SHELL          (I) : 0.75700                            
 200  R SYM FOR SHELL            (I) : NULL                               
 200  <I/SIGMA(I)> FOR SHELL         : 3.200                              
 200                                                                      
 200 DIFFRACTION PROTOCOL: SINGLE WAVELENGTH; SINGLE WAVELENGTH           
 200 METHOD USED TO DETERMINE THE STRUCTURE: MOLECULAR REPLACEMENT        
 200 SOFTWARE USED: DIRECT                                                
 200 STARTING MODEL: PDB ENTRY 3DWZ                                       
 200                                                                      
 200 REMARK: NULL                                                         
 280                                                                      
 280 CRYSTAL                                                              
 280 SOLVENT CONTENT, VS   (%): 45.51                                     
 280 MATTHEWS COEFFICIENT, VM (ANGSTROMS**3/DA): 2.26                     
 280                                                                      
 280 CRYSTALLIZATION CONDITIONS: 0.1 M HEPES, 2 M NH4H2PO4, PH 7.5,       
 280  VAPOR DIFFUSION, SITTING DROP, TEMPERATURE 298K                     
 290                                                                      
 290 CRYSTALLOGRAPHIC SYMMETRY                                            
 290 SYMMETRY OPERATORS FOR SPACE GROUP: P 21 21 21                       
 290                                                                      
 290      SYMOP   SYMMETRY                                                
 290     NNNMMM   OPERATOR                                                
 290       1555   X,Y,Z                                                   
 290       2555   -X+1/2,-Y,Z+1/2                                         
 290       3555   -X,Y+1/2,-Z+1/2                                         
 290       4555   X+1/2,-Y+1/2,-Z                                         
 290                                                                      
 290     WHERE NNN -> OPERATOR NUMBER                                     
 290           MMM -> TRANSLATION VECTOR                                  
 290                                                                      
 290 CRYSTALLOGRAPHIC SYMMETRY TRANSFORMATIONS                            
 290 THE FOLLOWING TRANSFORMATIONS OPERATE ON THE ATOM/HETATM             
 290 RECORDS IN THIS ENTRY TO PRODUCE CRYSTALLOGRAPHICALLY                
 290 RELATED MOLECULES.                                                   
 290   SMTRY1   1  1.000000  0.000000  0.000000        0.00000            
 290   SMTRY2   1  0.000000  1.000000  0.000000        0.00000            
 290   SMTRY3   1  0.000000  0.000000  1.000000        0.00000            
 290   SMTRY1   2 -1.000000  0.000000  0.000000       24.90450            
 290   SMTRY2   2  0.000000 -1.000000  0.000000        0.00000            
 290   SMTRY3   2  0.000000  0.000000  1.000000       37.63950            
 290   SMTRY1   3 -1.000000  0.000000  0.000000        0.00000            
 290   SMTRY2   3  0.000000  1.000000  0.000000       33.97350            
 290   SMTRY3   3  0.000000  0.000000 -1.000000       37.63950            
 290   SMTRY1   4  1.000000  0.000000  0.000000       24.90450            
 290   SMTRY2   4  0.000000 -1.000000  0.000000       33.97350            
 290   SMTRY3   4  0.000000  0.000000 -1.000000        0.00000            
 290                                                                      
 290 REMARK: NULL                                                         
 300                                                                      
 300 BIOMOLECULE: 1                                                       
 300 SEE REMARK 350 FOR THE AUTHOR PROVIDED AND/OR PROGRAM                
 300 GENERATED ASSEMBLY INFORMATION FOR THE STRUCTURE IN                  
 300 THIS ENTRY. THE REMARK MAY ALSO PROVIDE INFORMATION ON               
 300 BURIED SURFACE AREA.                                                 
 350                                                                      
 350 COORDINATES FOR A COMPLETE MULTIMER REPRESENTING THE KNOWN           
 350 BIOLOGICALLY SIGNIFICANT OLIGOMERIZATION STATE OF THE                
 350 MOLECULE CAN BE GENERATED BY APPLYING BIOMT TRANSFORMATIONS          
 350 GIVEN BELOW.  BOTH NON-CRYSTALLOGRAPHIC AND                          
 350 CRYSTALLOGRAPHIC OPERATIONS ARE GIVEN.                               
 350                                                                      
 350 BIOMOLECULE: 1                                                       
 350 AUTHOR DETERMINED BIOLOGICAL UNIT: MONOMERIC                         
 350 SOFTWARE DETERMINED QUATERNARY STRUCTURE: MONOMERIC                  
 350 SOFTWARE USED: PISA                                                  
 350 APPLY THE FOLLOWING TO CHAINS: A                                     
 350   BIOMT1   1  1.000000  0.000000  0.000000        0.00000            
 350   BIOMT2   1  0.000000  1.000000  0.000000        0.00000            
 350   BIOMT3   1  0.000000  0.000000  1.000000        0.00000            
 500                                                                      
 500 GEOMETRY AND STEREOCHEMISTRY                                         
 500 SUBTOPIC: TORSION ANGLES                                             
 500                                                                      
 500 TORSION ANGLES OUTSIDE THE EXPECTED RAMACHANDRAN REGIONS:            
 500 (M=MODEL NUMBER; RES=RESIDUE NAME; C=CHAIN IDENTIFIER;               
 500 SSEQ=SEQUENCE NUMBER; I=INSERTION CODE).                             
 500                                                                      
 500 STANDARD TABLE:                                                      
 500 FORMAT:(10X,I3,1X,A3,1X,A1,I4,A1,4X,F7.2,3X,F7.2)                    
 500                                                                      
 500 EXPECTED VALUES: GJ KLEYWEGT AND TA JONES (1996). PHI/PSI-           
 500 CHOLOGY: RAMACHANDRAN REVISITED. STRUCTURE 4, 1395 - 1400            
 500                                                                      
 500  M RES CSSEQI        PSI       PHI                                   
 500    CYS A  83     -139.97     43.95                                   
 500    ARG A 236     -122.80   -118.05                                   
 500                                                                      
 500 REMARK: NULL                                                         
 610                                                                      
 610 MISSING HETEROATOM                                                   
 610 THE FOLLOWING RESIDUES HAVE MISSING ATOMS (M=MODEL NUMBER;           
 610 RES=RESIDUE NAME; C=CHAIN IDENTIFIER; SSEQ=SEQUENCE NUMBER;          
 610 I=INSERTION CODE):                                                   
 610   M RES C SSEQI                                                      
 610     DH4 A  308                                                       
 800                                                                      
 800 SITE                                                                 
 800 SITE_IDENTIFIER: AC1                                                 
 800 EVIDENCE_CODE: SOFTWARE                                              
 800 SITE_DESCRIPTION: BINDING SITE FOR RESIDUE PO4 A 1                   
 800                                                                      
 800 SITE_IDENTIFIER: AC2                                                 
 800 EVIDENCE_CODE: SOFTWARE                                              
 800 SITE_DESCRIPTION: BINDING SITE FOR RESIDUE PO4 A 2                   
 800                                                                      
 800 SITE_IDENTIFIER: AC3                                                 
 800 EVIDENCE_CODE: SOFTWARE                                              
 800 SITE_DESCRIPTION: BINDING SITE FOR RESIDUE PO4 A 3                   
 800                                                                      
 800 SITE_IDENTIFIER: AC4                                                 
 800 EVIDENCE_CODE: SOFTWARE                                              
 800 SITE_DESCRIPTION: BINDING SITE FOR RESIDUE DH4 A 308                 

>  <DBREF>  (1) 
 3NC8 A   43   307  UNP    P0C5C1   BLAC_MYCTU      43    307             

>  <SEQADV>  (1) 
 3NC8 ALA A  182  UNP  P0C5C1    GLU   182 ENGINEERED MUTATION            

>  <SEQRES>  (1) 
   1 A  265  ASP LEU ALA ASP ARG PHE ALA GLU LEU GLU ARG ARG TYR          
   2 A  265  ASP ALA ARG LEU GLY VAL TYR VAL PRO ALA THR GLY THR          
   3 A  265  THR ALA ALA ILE GLU TYR ARG ALA ASP GLU ARG PHE ALA          
   4 A  265  PHE CYS SER THR PHE LYS ALA PRO LEU VAL ALA ALA VAL          
   5 A  265  LEU HIS GLN ASN PRO LEU THR HIS LEU ASP LYS LEU ILE          
   6 A  265  THR TYR THR SER ASP ASP ILE ARG SER ILE SER PRO VAL          
   7 A  265  ALA GLN GLN HIS VAL GLN THR GLY MET THR ILE GLY GLN          
   8 A  265  LEU CYS ASP ALA ALA ILE ARG TYR SER ASP GLY THR ALA          
   9 A  265  ALA ASN LEU LEU LEU ALA ASP LEU GLY GLY PRO GLY GLY          
  10 A  265  GLY THR ALA ALA PHE THR GLY TYR LEU ARG SER LEU GLY          
  11 A  265  ASP THR VAL SER ARG LEU ASP ALA GLU ALA PRO GLU LEU          
  12 A  265  ASN ARG ASP PRO PRO GLY ASP GLU ARG ASP THR THR THR          
  13 A  265  PRO HIS ALA ILE ALA LEU VAL LEU GLN GLN LEU VAL LEU          
  14 A  265  GLY ASN ALA LEU PRO PRO ASP LYS ARG ALA LEU LEU THR          
  15 A  265  ASP TRP MET ALA ARG ASN THR THR GLY ALA LYS ARG ILE          
  16 A  265  ARG ALA GLY PHE PRO ALA ASP TRP LYS VAL ILE ASP LYS          
  17 A  265  THR GLY THR GLY ASP TYR GLY ARG ALA ASN ASP ILE ALA          
  18 A  265  VAL VAL TRP SER PRO THR GLY VAL PRO TYR VAL VAL ALA          
  19 A  265  VAL MET SER ASP ARG ALA GLY GLY GLY TYR ASP ALA GLU          
  20 A  265  PRO ARG GLU ALA LEU LEU ALA GLU ALA ALA THR CYS VAL          
  21 A  265  ALA GLY VAL LEU ALA                                          

>  <HET>  (1) 
 PO4  A   1       5                                                       
 PO4  A   2       5                                                       
 PO4  A   3       5                                                       
 DH4  A 308      12                                                       

>  <HETNAM>  (1) 
     PO4 PHOSPHATE ION                                                    
     DH4 2-[(1R)-1-{[(E)-AZEPAN-1-YLMETHYLIDENE]AMINO}-2-                 
   2 DH4  OXOETHYL]-5,5-DIMETHYL-1,3-THIAZOLIDINE-4-CARBOXYLIC            
   3 DH4  ACID                                                            

>  <HETSYN>  (1) 
     DH4 MECILLINAM, BOUND FORM                                           

>  <FORMUL>  (1) 
   2  PO4    3(O4 P 3-)                                                   
   5  DH4    C15 H25 N3 O3 S                                              
   6  HOH   *326(H2 O)                                                    

>  <HELIX>  (1) 
   1   1 ASP A   43  ASP A   56  1                                  14    
   2   2 CYS A   83  THR A   85  5                                   3    
   3   3 PHE A   86  ASN A   98  1                                  13    
   4   4 PRO A   99  ASP A  104  5                                   6    
   5   5 THR A  110  ILE A  114  5                                   5    
   6   6 ILE A  131  TYR A  141  1                                  11    
   7   7 ASP A  143  GLY A  155  1                                  13    
   8   8 PRO A  157  GLY A  159  5                                   3    
   9   9 GLY A  160  LEU A  171  1                                  12    
  10  10 PRO A  183  ARG A  187  5                                   5    
  11  11 THR A  198  LEU A  211  1                                  14    
  12  12 PRO A  216  ARG A  229  1                                  14    
  13  13 ARG A  236  PHE A  241  1                                   6    
  14  14 ARG A  281  GLY A  285  5                                   5    
  15  15 ARG A  291  ALA A  307  1                                  17    

>  <SHEET>  (1) 
   1   A 5 ILE A  72  TYR A  74  0                                        
   2   A 5 ARG A  58  VAL A  63 -1  N  VAL A  61   O  TYR A  74           
   3   A 5 PRO A 272  ASP A 280 -1  O  MET A 278   N  GLY A  60           
   4   A 5 ALA A 259  TRP A 266 -1  N  ALA A 263   O  VAL A 275           
   5   A 5 LYS A 246  THR A 253 -1  N  GLY A 252   O  ASN A 260           
   1   B 2 PHE A  80  ALA A  81  0                                        
   2   B 2 THR A 196  THR A 197 -1  O  THR A 197   N  PHE A  80           
   1   C 2 LEU A 106  ILE A 107  0                                        
   2   C 2 MET A 129  THR A 130 -1  O  MET A 129   N  ILE A 107           

>  <LINK>  (1) 
       OG  SER A  84                 C   DH4 A 308     1555   1555  1.41  

>  <CISPEP>  (1) 
   1 ALA A  182    PRO A  183          0         6.01                     

>  <SITE>  (1) 
   1 AC1  9 HOH A  19  HOH A  30  HOH A  36  ARG A  79                    
   2 AC1  9 ARG A 187  GLU A 193  ASP A 255  TYR A 286                    
   3 AC1  9 DH4 A 308                                                     
   1 AC2  6 HOH A   6  ARG A  75  GLU A  78  GLU A 184                    
   2 AC2  6 HOH A 341  HOH A 527                                          
   1 AC3  9 SER A 142  THR A 232  THR A 251  GLY A 252                    
   2 AC3  9 THR A 253  DH4 A 308  HOH A 400  HOH A 532                    
   3 AC3  9 HOH A 537                                                     
   1 AC4 11 PO4 A   1  PO4 A   3  CYS A  83  SER A  84                    
   2 AC4 11 SER A 142  ASN A 186  GLU A 193  GLY A 252                    
   3 AC4 11 THR A 253  HOH A 366  HOH A 532                               

>  <ORIGX1>  (1) 
      1.000000  0.000000  0.000000        0.00000                         

>  <ORIGX2>  (1) 
      0.000000  1.000000  0.000000        0.00000                         

>  <ORIGX3>  (1) 
      0.000000  0.000000  1.000000        0.00000                         

>  <SCALE1>  (1) 
      0.020077  0.000000  0.000000        0.00000                         

>  <SCALE2>  (1) 
      0.000000  0.014717  0.000000        0.00000                         

>  <SCALE3>  (1) 
      0.000000  0.000000  0.013284        0.00000                         

>  <MASTER>  (1) 
      280    0    4   15    9    0   11    6 2337    1   28   21          

$$$$
