start_structures/Ligand_Substrate/Ligand_Complex_Stripped/NW3_7U4B.pdb
     RDKit          3D

 30 31  0  0  1  0  0  0  0  0999 V2000
   48.7945   51.8793   46.3355 N   0  0  0  0  0  0  0  0  0  0  0  0
   47.4446   51.3838   46.5433 C   0  0  2  0  0  0  0  0  0  0  0  0
   47.4039   49.8881   46.4407 C   0  0  0  0  0  0  0  0  0  0  0  0
   46.4742   49.2683   46.9364 O   0  0  0  0  0  0  0  0  0  0  0  0
   46.5145   52.0004   45.5088 C   0  0  0  0  0  0  0  0  0  0  0  0
   46.1682   53.3301   45.8752 O   0  0  0  0  0  0  0  0  0  0  0  0
   41.4747   56.6237   46.6694 C   0  0  2  0  0  0  0  0  0  0  0  0
   40.7807   54.2189   46.3084 C   0  0  0  0  0  0  0  0  0  0  0  0
   39.6218   52.9971   48.0477 C   0  0  0  0  0  0  0  0  0  0  0  0
   45.8953   60.2088   44.6767 C   0  0  0  0  0  0  0  0  0  0  0  0
   48.0154   58.6770   46.0201 C   0  0  0  0  0  0  0  0  0  0  0  0
   48.5528   58.7524   43.5962 C   0  0  0  0  0  0  0  0  0  0  0  0
   47.5525   58.2699   44.6281 C   0  0  0  0  0  0  0  0  0  0  0  0
   46.1560   58.7815   44.2925 C   0  0  1  0  0  0  0  0  0  0  0  0
   45.6164   56.5356   44.5454 C   0  0  1  0  0  0  0  0  0  0  0  0
   45.0227   55.5130   45.5192 C   0  0  2  0  0  0  0  0  0  0  0  0
   45.3356   54.1183   45.0818 C   0  0  0  0  0  0  0  0  0  0  0  0
   42.9618   56.4863   46.6218 C   0  0  0  0  0  0  0  0  0  0  0  0
   40.8213   55.3571   47.1292 C   0  0  0  0  0  0  0  0  0  0  0  0
   40.1806   53.0427   46.7673 C   0  0  0  0  0  0  0  0  0  0  0  0
   39.6641   54.1269   48.8700 C   0  0  0  0  0  0  0  0  0  0  0  0
   40.2643   55.3037   48.4119 C   0  0  0  0  0  0  0  0  0  0  0  0
   45.1810   57.8846   44.8856 N   0  0  0  0  0  0  0  0  0  0  0  0
   43.5773   55.6702   45.6212 N   0  0  0  0  0  0  0  0  0  0  0  0
   40.9583   57.0322   45.3724 N   0  0  0  0  0  0  0  0  0  0  0  0
   44.8581   53.6692   44.0032 O   0  0  0  0  0  0  0  0  0  0  0  0
   43.6643   57.0758   47.4857 O   0  0  0  0  0  0  0  0  0  0  0  0
   45.5087   60.5017   45.8394 O   0  0  0  0  0  0  0  0  0  0  0  0
   46.1187   61.2193   43.7515 O   0  0  0  0  0  0  0  0  0  0  0  0
   47.4442   56.4657   44.5685 S   0  0  0  0  0  0  0  0  0  0  0  0
  2  1  1  6
  3  4  2  0
  3  2  1  0
  5  2  1  0
  5  6  1  0
  6 17  1  0
  7 18  1  0
  7 19  1  0
  7 25  1  6
  8 19  2  0
  8 20  1  0
  9 20  2  0
  9 21  1  0
 10 28  2  0
 10 29  1  0
 11 13  1  0
 12 13  1  0
 13 14  1  0
 13 30  1  0
 14 10  1  1
 14 23  1  0
 15 16  1  0
 15 23  1  1
 15 30  1  0
 16 17  1  0
 16 24  1  6
 17 26  2  0
 18 24  1  0
 18 27  2  0
 19 22  1  0
 21 22  2  0
M  END
>  <HEADER>  (1) 
    HYDROLASE                               28-FEB-22   7U4B              

>  <TITLE>  (1) 
    AMPICILLIN-CTX-M-15                                                   

>  <COMPND>  (1) 
    MOL_ID: 1;                                                            
   2 MOLECULE: BETA-LACTAMASE;                                            
   3 CHAIN: A, B, C;                                                      
   4 EC: 3.5.2.6;                                                         
   5 ENGINEERED: YES;                                                     
   6 MUTATION: YES                                                        

>  <SOURCE>  (1) 
    MOL_ID: 1;                                                            
   2 ORGANISM_SCIENTIFIC: ESCHERICHIA COLI;                               
   3 ORGANISM_TAXID: 562;                                                 
   4 GENE: BLA, BLACTX-M-15;                                              
   5 EXPRESSION_SYSTEM: ESCHERICHIA COLI;                                 
   6 EXPRESSION_SYSTEM_TAXID: 562                                         

>  <KEYWDS>  (1) 
    ANTIBIOTICS, COMPLEX, B-LACTAMASE, AMPICILLIN, CTX-M-15, STRUCTURAL   
   2 PROTEIN, HYDROLASE                                                   

>  <EXPDTA>  (1) 
    X-RAY DIFFRACTION                                                     

>  <AUTHOR>  (1) 
    P.AHMADVAND,C.H.KANG                                                  

>  <REVDAT>  (1) 
   1   25-MAY-22 7U4B    0                                                

>  <JRNL>  (1) 
      AUTH   P.AHMADVAND,J.J.AVILLAN,J.A.LEWIS,D.R.CALL,C.KANG            
      TITL   CHARACTERIZATION OF INTERACTIONS BETWEEN CTX-M-15 AND        
      TITL 2 CLAVULANIC ACID, DESFUROYLCEFTIOFUR, CEFTIOFUR, AMPICILLIN,  
      TITL 3 AND NITROCEFIN.                                              
      REF    INT J MOL SCI                 V.  23       2022              
      REFN                   ESSN 1422-0067                               
      PMID   35563620                                                     
      DOI    10.3390/IJMS23095229                                         

>  <REMARK>  (1) 
   2                                                                      
   2 RESOLUTION.    1.92 ANGSTROMS.                                       
   3                                                                      
   3 REFINEMENT.                                                          
   3   PROGRAM     : PHENIX 1.20_4459                                     
   3   AUTHORS     : PAUL ADAMS,PAVEL AFONINE,VINCENT CHEN,IAN            
   3               : DAVIS,KRESHNA GOPAL,RALF GROSSE-KUNSTLEVE,           
   3               : LI-WEI HUNG,ROBERT IMMORMINO,TOM IOERGER,            
   3               : AIRLIE MCCOY,ERIK MCKEE,NIGEL MORIARTY,              
   3               : REETAL PAI,RANDY READ,JANE RICHARDSON,               
   3               : DAVID RICHARDSON,TOD ROMO,JIM SACCHETTINI,           
   3               : NICHOLAS SAUTER,JACOB SMITH,LAURENT                  
   3               : STORONI,TOM TERWILLIGER,PETER ZWART                  
   3                                                                      
   3    REFINEMENT TARGET : ML                                            
   3                                                                      
   3  DATA USED IN REFINEMENT.                                            
   3   RESOLUTION RANGE HIGH (ANGSTROMS) : 1.92                           
   3   RESOLUTION RANGE LOW  (ANGSTROMS) : 48.90                          
   3   MIN(FOBS/SIGMA_FOBS)              : 1.340                          
   3   COMPLETENESS FOR RANGE        (%) : 87.5                           
   3   NUMBER OF REFLECTIONS             : 56674                          
   3                                                                      
   3  FIT TO DATA USED IN REFINEMENT.                                     
   3   R VALUE     (WORKING + TEST SET) : 0.218                           
   3   R VALUE            (WORKING SET) : 0.217                           
   3   FREE R VALUE                     : 0.270                           
   3   FREE R VALUE TEST SET SIZE   (%) : 3.160                           
   3   FREE R VALUE TEST SET COUNT      : 1791                            
   3                                                                      
   3  FIT TO DATA USED IN REFINEMENT (IN BINS).                           
   3   BIN  RESOLUTION RANGE  COMPL.    NWORK NFREE   RWORK  RFREE        
   3     1 48.9000 -  4.5100    1.00     4989   162  0.1793 0.2534        
   3     2  4.5100 -  3.5800    1.00     4856   159  0.1661 0.2064        
   3     3  3.5800 -  3.1300    1.00     4844   158  0.1958 0.2488        
   3     4  3.1300 -  2.8400    0.99     4786   154  0.2127 0.2690        
   3     5  2.8400 -  2.6400    0.98     4756   157  0.2341 0.2728        
   3     6  2.6400 -  2.4800    0.98     4730   153  0.2371 0.3070        
   3     7  2.4800 -  2.3600    0.97     4684   155  0.2449 0.3041        
   3     8  2.3600 -  2.2600    0.97     4649   149  0.2711 0.3024        
   3     9  2.2600 -  2.1700    0.92     4378   144  0.2915 0.3627        
   3    10  2.1700 -  2.1000    0.83     3994   130  0.3152 0.3159        
   3    11  2.1000 -  2.0300    0.72     3413   112  0.3241 0.3698        
   3    12  2.0300 -  1.9700    0.57     2710    87  0.3400 0.3982        
   3    13  1.9700 -  1.9200    0.44     2094    71  0.3701 0.4475        
   3                                                                      
   3  BULK SOLVENT MODELLING.                                             
   3   METHOD USED        : FLAT BULK SOLVENT MODEL                       
   3   SOLVENT RADIUS     : 1.10                                          
   3   SHRINKAGE RADIUS   : 0.90                                          
   3   K_SOL              : NULL                                          
   3   B_SOL              : NULL                                          
   3                                                                      
   3  ERROR ESTIMATES.                                                    
   3   COORDINATE ERROR (MAXIMUM-LIKELIHOOD BASED)     : 0.280            
   3   PHASE ERROR (DEGREES, MAXIMUM-LIKELIHOOD BASED) : 32.160           
   3                                                                      
   3  B VALUES.                                                           
   3   FROM WILSON PLOT           (A**2) : 27.20                          
   3   MEAN B VALUE      (OVERALL, A**2) : 46.10                          
   3   OVERALL ANISOTROPIC B VALUE.                                       
   3    B11 (A**2) : NULL                                                 
   3    B22 (A**2) : NULL                                                 
   3    B33 (A**2) : NULL                                                 
   3    B12 (A**2) : NULL                                                 
   3    B13 (A**2) : NULL                                                 
   3    B23 (A**2) : NULL                                                 
   3                                                                      
   3  TWINNING INFORMATION.                                               
   3   FRACTION: NULL                                                     
   3   OPERATOR: NULL                                                     
   3                                                                      
   3  DEVIATIONS FROM IDEAL VALUES.                                       
   3                 RMSD          COUNT                                  
   3   BOND      :   NULL           NULL                                  
   3   ANGLE     :   NULL           NULL                                  
   3   CHIRALITY :   NULL           NULL                                  
   3   PLANARITY :   NULL           NULL                                  
   3   DIHEDRAL  :   NULL           NULL                                  
   3                                                                      
   3  TLS DETAILS                                                         
   3   NUMBER OF TLS GROUPS  : 19                                         
   3   TLS GROUP : 1                                                      
   3    SELECTION: ( CHAIN C AND RESID 195:212 )                          
   3    ORIGIN FOR THE GROUP (A):  -64.348  -14.895   31.151              
   3    T TENSOR                                                          
   3      T11:   0.3349 T22:   0.8603                                     
   3      T33:   0.3441 T12:  -0.3341                                     
   3      T13:   0.0166 T23:   0.3728                                     
   3    L TENSOR                                                          
   3      L11:   2.2991 L22:   1.2833                                     
   3      L33:   2.6787 L12:   0.2057                                     
   3      L13:  -1.3913 L23:   0.8030                                     
   3    S TENSOR                                                          
   3      S11:   0.0620 S12:  -0.3744 S13:  -0.2454                       
   3      S21:   0.2532 S22:  -0.2106 S23:  -0.1398                       
   3      S31:   0.1073 S32:   0.3311 S33:   0.2515                       
   3   TLS GROUP : 2                                                      
   3    SELECTION: ( CHAIN C AND RESID 213:250 )                          
   3    ORIGIN FOR THE GROUP (A):  -70.196    1.179   31.901              
   3    T TENSOR                                                          
   3      T11:   0.5669 T22:   1.1523                                     
   3      T33:   0.1702 T12:  -0.4903                                     
   3      T13:   0.1986 T23:   0.1959                                     
   3    L TENSOR                                                          
   3      L11:   1.2068 L22:   0.8374                                     
   3      L33:   1.1007 L12:   0.1076                                     
   3      L13:  -1.0623 L23:   0.0935                                     
   3    S TENSOR                                                          
   3      S11:   0.3677 S12:  -0.1883 S13:   0.1912                       
   3      S21:  -0.0286 S22:  -0.2420 S23:  -0.2248                       
   3      S31:  -0.4904 S32:   0.0864 S33:  -0.1778                       
   3   TLS GROUP : 3                                                      
   3    SELECTION: ( CHAIN C AND RESID 251:265 )                          
   3    ORIGIN FOR THE GROUP (A):  -75.540   -2.328   36.079              
   3    T TENSOR                                                          
   3      T11:   0.4353 T22:   0.9514                                     
   3      T33:   0.2399 T12:  -0.3591                                     
   3      T13:   0.1265 T23:   0.0602                                     
   3    L TENSOR                                                          
   3      L11:   1.2458 L22:   1.7147                                     
   3      L33:   4.8408 L12:   0.0557                                     
   3      L13:  -1.2092 L23:  -1.0818                                     
   3    S TENSOR                                                          
   3      S11:   0.1546 S12:  -0.0208 S13:   0.0351                       
   3      S21:   0.0557 S22:  -0.1312 S23:  -0.0011                       
   3      S31:  -0.4274 S32:   0.0176 S33:  -0.2339                       
   3   TLS GROUP : 4                                                      
   3    SELECTION: ( CHAIN C AND RESID 266:287 )                          
   3    ORIGIN FOR THE GROUP (A):  -78.342    8.104   31.354              
   3    T TENSOR                                                          
   3      T11:   0.8520 T22:   0.9216                                     
   3      T33:   0.3142 T12:  -0.3244                                     
   3      T13:   0.2492 T23:  -0.0556                                     
   3    L TENSOR                                                          
   3      L11:   1.4946 L22:   2.2353                                     
   3      L33:   5.6947 L12:  -1.3421                                     
   3      L13:  -0.9121 L23:  -0.8353                                     
   3    S TENSOR                                                          
   3      S11:   0.2949 S12:   0.0954 S13:   0.1102                       
   3      S21:   0.1406 S22:  -0.2688 S23:   0.0174                       
   3      S31:  -1.0672 S32:  -0.0871 S33:  -0.0770                       
   3   TLS GROUP : 5                                                      
   3    SELECTION: ( CHAIN A AND RESID 28:68 )                            
   3    ORIGIN FOR THE GROUP (A):  -37.223   22.449   22.293              
   3    T TENSOR                                                          
   3      T11:   0.5307 T22:   0.3170                                     
   3      T33:   0.4011 T12:  -0.1621                                     
   3      T13:  -0.0486 T23:   0.1101                                     
   3    L TENSOR                                                          
   3      L11:   5.7192 L22:   4.5613                                     
   3      L33:   0.4586 L12:  -2.0571                                     
   3      L13:  -0.5694 L23:   0.7022                                     
   3    S TENSOR                                                          
   3      S11:  -0.2908 S12:   0.8762 S13:   0.9630                       
   3      S21:  -0.8459 S22:   0.2033 S23:  -0.1956                       
   3      S31:  -0.3392 S32:   0.0952 S33:   0.0864                       
   3   TLS GROUP : 6                                                      
   3    SELECTION: ( CHAIN A AND RESID 69:142 )                           
   3    ORIGIN FOR THE GROUP (A):  -48.205    3.914   45.224              
   3    T TENSOR                                                          
   3      T11:   0.4750 T22:   0.5842                                     
   3      T33:   0.3374 T12:   0.1870                                     
   3      T13:   0.1806 T23:   0.1882                                     
   3    L TENSOR                                                          
   3      L11:   2.2626 L22:   1.0282                                     
   3      L33:   1.7810 L12:   0.8639                                     
   3      L13:  -0.0542 L23:   0.2882                                     
   3    S TENSOR                                                          
   3      S11:  -0.3994 S12:  -1.1616 S13:  -0.6101                       
   3      S21:   0.1382 S22:  -0.0120 S23:   0.0040                       
   3      S31:   0.3303 S32:  -0.2606 S33:   0.2142                       
   3   TLS GROUP : 7                                                      
   3    SELECTION: ( CHAIN A AND RESID 143:155 )                          
   3    ORIGIN FOR THE GROUP (A):  -33.420   12.030   45.623              
   3    T TENSOR                                                          
   3      T11:   0.3434 T22:   0.6129                                     
   3      T33:   0.3140 T12:   0.2089                                     
   3      T13:   0.0131 T23:   0.0343                                     
   3    L TENSOR                                                          
   3      L11:   7.1422 L22:   1.3127                                     
   3      L33:   6.1385 L12:   2.0542                                     
   3      L13:  -3.7790 L23:   0.6416                                     
   3    S TENSOR                                                          
   3      S11:  -0.5232 S12:  -1.4618 S13:  -0.3342                       
   3      S21:   0.2972 S22:   0.1855 S23:  -0.1281                       
   3      S31:   0.3577 S32:   0.3442 S33:   0.2985                       
   3   TLS GROUP : 8                                                      
   3    SELECTION: ( CHAIN A AND RESID 156:250 )                          
   3    ORIGIN FOR THE GROUP (A):  -41.061   11.627   32.832              
   3    T TENSOR                                                          
   3      T11:   0.3475 T22:   0.1522                                     
   3      T33:   0.2159 T12:   0.0499                                     
   3      T13:   0.0784 T23:  -0.0270                                     
   3    L TENSOR                                                          
   3      L11:   3.7292 L22:   0.7757                                     
   3      L33:   1.9773 L12:   0.2615                                     
   3      L13:   0.6204 L23:  -0.0184                                     
   3    S TENSOR                                                          
   3      S11:  -0.4694 S12:  -0.3361 S13:  -0.1224                       
   3      S21:   0.0660 S22:   0.2582 S23:   0.0429                       
   3      S31:   0.1468 S32:   0.0044 S33:   0.1795                       
   3   TLS GROUP : 9                                                      
   3    SELECTION: ( CHAIN A AND RESID 251:264 )                          
   3    ORIGIN FOR THE GROUP (A):  -38.921   10.607   21.242              
   3    T TENSOR                                                          
   3      T11:   0.3190 T22:   0.2021                                     
   3      T33:   0.2822 T12:  -0.0491                                     
   3      T13:   0.0347 T23:  -0.0121                                     
   3    L TENSOR                                                          
   3      L11:   3.4715 L22:   3.3916                                     
   3      L33:   2.9539 L12:  -0.1511                                     
   3      L13:   0.2191 L23:   0.6893                                     
   3    S TENSOR                                                          
   3      S11:  -0.4542 S12:   0.5666 S13:  -0.1946                       
   3      S21:  -0.1279 S22:   0.1809 S23:   0.0827                       
   3      S31:   0.0919 S32:   0.2169 S33:   0.2554                       
   3   TLS GROUP : 10                                                     
   3    SELECTION: ( CHAIN A AND RESID 265:287 )                          
   3    ORIGIN FOR THE GROUP (A):  -48.761   21.646   23.121              
   3    T TENSOR                                                          
   3      T11:   0.3279 T22:   0.2344                                     
   3      T33:   0.3289 T12:   0.0239                                     
   3      T13:  -0.1155 T23:   0.0567                                     
   3    L TENSOR                                                          
   3      L11:   5.5217 L22:   6.3254                                     
   3      L33:   2.0065 L12:  -0.9376                                     
   3      L13:  -1.0618 L23:  -0.5968                                     
   3    S TENSOR                                                          
   3      S11:  -0.2246 S12:   0.7380 S13:   0.5089                       
   3      S21:  -0.0834 S22:  -0.2082 S23:   0.2081                       
   3      S31:  -0.3643 S32:  -0.3164 S33:   0.4277                       
   3   TLS GROUP : 11                                                     
   3    SELECTION: ( CHAIN B AND RESID 28:68 )                            
   3    ORIGIN FOR THE GROUP (A):  -13.079   -8.241   20.919              
   3    T TENSOR                                                          
   3      T11:   0.5393 T22:   0.9697                                     
   3      T33:   0.3138 T12:   0.1993                                     
   3      T13:   0.1144 T23:  -0.0310                                     
   3    L TENSOR                                                          
   3      L11:   1.7131 L22:   3.2998                                     
   3      L33:   1.5821 L12:  -1.5004                                     
   3      L13:   0.3412 L23:   0.9089                                     
   3    S TENSOR                                                          
   3      S11:  -0.2694 S12:  -0.4359 S13:  -0.0761                       
   3      S21:   0.6508 S22:   0.0610 S23:   0.0378                       
   3      S31:   0.5471 S32:   1.0662 S33:   0.2042                       
   3   TLS GROUP : 12                                                     
   3    SELECTION: ( CHAIN B AND RESID 69:96 )                            
   3    ORIGIN FOR THE GROUP (A):  -26.203    2.085   -5.077              
   3    T TENSOR                                                          
   3      T11:   0.2795 T22:   0.5596                                     
   3      T33:   0.3128 T12:  -0.0189                                     
   3      T13:   0.0684 T23:  -0.1913                                     
   3    L TENSOR                                                          
   3      L11:   1.5756 L22:   2.3017                                     
   3      L33:   3.7364 L12:  -0.7984                                     
   3      L13:  -0.0658 L23:   0.0812                                     
   3    S TENSOR                                                          
   3      S11:   0.0410 S12:   0.2744 S13:  -0.0301                       
   3      S21:  -0.0691 S22:  -0.3006 S23:   0.2751                       
   3      S31:  -0.0490 S32:   0.0126 S33:   0.2490                       
   3   TLS GROUP : 13                                                     
   3    SELECTION: ( CHAIN B AND RESID 97:115 )                           
   3    ORIGIN FOR THE GROUP (A):  -23.424  -13.660  -13.922              
   3    T TENSOR                                                          
   3      T11:   0.6417 T22:   0.6828                                     
   3      T33:   0.4049 T12:   0.0317                                     
   3      T13:   0.1419 T23:  -0.2610                                     
   3    L TENSOR                                                          
   3      L11:   2.6561 L22:   2.3972                                     
   3      L33:   5.5810 L12:  -0.3707                                     
   3      L13:   0.0667 L23:   0.3086                                     
   3    S TENSOR                                                          
   3      S11:  -0.0525 S12:   0.3636 S13:  -0.3083                       
   3      S21:  -0.1921 S22:  -0.2494 S23:   0.1404                       
   3      S31:   0.8521 S32:   0.0737 S33:   0.3184                       
   3   TLS GROUP : 14                                                     
   3    SELECTION: ( CHAIN B AND RESID 116:250 )                          
   3    ORIGIN FOR THE GROUP (A):  -20.842   -4.251    3.917              
   3    T TENSOR                                                          
   3      T11:   0.3030 T22:   0.6047                                     
   3      T33:   0.2943 T12:   0.0229                                     
   3      T13:   0.0697 T23:  -0.1654                                     
   3    L TENSOR                                                          
   3      L11:   0.9190 L22:   1.4768                                     
   3      L33:   3.0577 L12:  -0.2817                                     
   3      L13:  -0.6687 L23:  -0.0368                                     
   3    S TENSOR                                                          
   3      S11:   0.1215 S12:   0.1306 S13:  -0.1297                       
   3      S21:   0.1172 S22:  -0.2750 S23:   0.1515                       
   3      S31:   0.2355 S32:   0.6035 S33:   0.1661                       
   3   TLS GROUP : 15                                                     
   3    SELECTION: ( CHAIN B AND RESID 251:287 )                          
   3    ORIGIN FOR THE GROUP (A):  -19.179  -13.356   16.693              
   3    T TENSOR                                                          
   3      T11:   0.5785 T22:   0.6493                                     
   3      T33:   0.3016 T12:   0.1680                                     
   3      T13:   0.1067 T23:  -0.0102                                     
   3    L TENSOR                                                          
   3      L11:   2.6303 L22:   3.7486                                     
   3      L33:   1.7043 L12:   0.9712                                     
   3      L13:   1.6330 L23:  -0.9222                                     
   3    S TENSOR                                                          
   3      S11:   0.0071 S12:  -0.4317 S13:  -0.3440                       
   3      S21:   0.4971 S22:   0.0426 S23:   0.1716                       
   3      S31:   0.7368 S32:   0.4989 S33:  -0.0221                       
   3   TLS GROUP : 16                                                     
   3    SELECTION: ( CHAIN C AND RESID 28:51 )                            
   3    ORIGIN FOR THE GROUP (A):  -86.137    4.707   34.967              
   3    T TENSOR                                                          
   3      T11:   0.7650 T22:   1.2174                                     
   3      T33:   0.3622 T12:  -0.0531                                     
   3      T13:   0.1848 T23:  -0.0162                                     
   3    L TENSOR                                                          
   3      L11:   0.9066 L22:   2.5881                                     
   3      L33:   0.0636 L12:   0.4982                                     
   3      L13:  -0.0786 L23:  -0.4082                                     
   3    S TENSOR                                                          
   3      S11:   0.2179 S12:  -0.1495 S13:   0.2110                       
   3      S21:   0.9411 S22:  -0.0375 S23:   0.6320                       
   3      S31:  -0.7074 S32:  -0.8270 S33:  -0.1821                       
   3   TLS GROUP : 17                                                     
   3    SELECTION: ( CHAIN C AND RESID 52:68 )                            
   3    ORIGIN FOR THE GROUP (A):  -84.225   -5.619   31.535              
   3    T TENSOR                                                          
   3      T11:   0.3698 T22:   1.0570                                     
   3      T33:   0.2978 T12:  -0.2138                                     
   3      T13:   0.1156 T23:   0.0446                                     
   3    L TENSOR                                                          
   3      L11:   0.5725 L22:   1.1107                                     
   3      L33:   3.0951 L12:  -0.7320                                     
   3      L13:  -0.8589 L23:   0.6535                                     
   3    S TENSOR                                                          
   3      S11:   0.2301 S12:   0.2035 S13:  -0.2610                       
   3      S21:   0.1304 S22:  -0.3799 S23:   0.2297                       
   3      S31:  -0.2479 S32:  -0.6891 S33:   0.1573                       
   3   TLS GROUP : 18                                                     
   3    SELECTION: ( CHAIN C AND RESID 69:101 )                           
   3    ORIGIN FOR THE GROUP (A):  -61.513  -12.627   16.790              
   3    T TENSOR                                                          
   3      T11:   0.3467 T22:   0.7465                                     
   3      T33:   0.3563 T12:  -0.1114                                     
   3      T13:   0.0280 T23:   0.2492                                     
   3    L TENSOR                                                          
   3      L11:   0.9299 L22:   1.4718                                     
   3      L33:   1.9811 L12:  -0.7301                                     
   3      L13:  -0.8795 L23:   0.7202                                     
   3    S TENSOR                                                          
   3      S11:   0.2668 S12:  -0.0339 S13:  -0.0768                       
   3      S21:  -0.1651 S22:  -0.3461 S23:  -0.1647                       
   3      S31:  -0.2210 S32:  -0.1323 S33:   0.0455                       
   3   TLS GROUP : 19                                                     
   3    SELECTION: ( CHAIN C AND RESID 102:194 )                          
   3    ORIGIN FOR THE GROUP (A):  -69.458   -6.779   17.579              
   3    T TENSOR                                                          
   3      T11:   0.3760 T22:   0.7146                                     
   3      T33:   0.2709 T12:  -0.0665                                     
   3      T13:   0.0361 T23:   0.1734                                     
   3    L TENSOR                                                          
   3      L11:   1.8355 L22:   1.4590                                     
   3      L33:   2.7101 L12:  -0.4745                                     
   3      L13:  -1.1053 L23:   1.0080                                     
   3    S TENSOR                                                          
   3      S11:   0.4049 S12:   0.0541 S13:   0.0433                       
   3      S21:  -0.0459 S22:  -0.4321 S23:  -0.1306                       
   3      S31:  -0.4171 S32:  -0.2657 S33:   0.0053                       
   3                                                                      
   3  NCS DETAILS                                                         
   3   NUMBER OF NCS GROUPS : NULL                                        
   3                                                                      
   3  OTHER REFINEMENT REMARKS: NULL                                      
   4                                                                      
   4 7U4B COMPLIES WITH FORMAT V. 3.30, 13-JUL-11                         
 100                                                                      
 100 THIS ENTRY HAS BEEN PROCESSED BY RCSB ON 10-MAR-22.                  
 100 THE DEPOSITION ID IS D_1000261312.                                   
 200                                                                      
 200 EXPERIMENTAL DETAILS                                                 
 200  EXPERIMENT TYPE                : X-RAY DIFFRACTION                  
 200  DATE OF DATA COLLECTION        : 18-DEC-20                          
 200  TEMPERATURE           (KELVIN) : 80                                 
 200  PH                             : 6.8                                
 200  NUMBER OF CRYSTALS USED        : 1                                  
 200                                                                      
 200  SYNCHROTRON              (Y/N) : Y                                  
 200  RADIATION SOURCE               : ALS                                
 200  BEAMLINE                       : 5.0.2                              
 200  X-RAY GENERATOR MODEL          : NULL                               
 200  MONOCHROMATIC OR LAUE    (M/L) : M                                  
 200  WAVELENGTH OR RANGE        (A) : 1                                  
 200  MONOCHROMATOR                  : NULL                               
 200  OPTICS                         : NULL                               
 200                                                                      
 200  DETECTOR TYPE                  : PIXEL                              
 200  DETECTOR MANUFACTURER          : DECTRIS PILATUS3 6M                
 200  INTENSITY-INTEGRATION SOFTWARE : HKL-2000                           
 200  DATA SCALING SOFTWARE          : HKL-2000                           
 200                                                                      
 200  NUMBER OF UNIQUE REFLECTIONS   : 57183                              
 200  RESOLUTION RANGE HIGH      (A) : 1.500                              
 200  RESOLUTION RANGE LOW       (A) : 50.000                             
 200  REJECTION CRITERIA  (SIGMA(I)) : NULL                               
 200                                                                      
 200 OVERALL.                                                             
 200  COMPLETENESS FOR RANGE     (%) : 94.1                               
 200  DATA REDUNDANCY                : 6.000                              
 200  R MERGE                    (I) : 0.11900                            
 200  R SYM                      (I) : NULL                               
 200  <I/SIGMA(I)> FOR THE DATA SET  : 5.3000                             
 200                                                                      
 200 IN THE HIGHEST RESOLUTION SHELL.                                     
 200  HIGHEST RESOLUTION SHELL, RANGE HIGH (A) : 1.50                     
 200  HIGHEST RESOLUTION SHELL, RANGE LOW  (A) : 1.53                     
 200  COMPLETENESS FOR SHELL     (%) : 44.3                               
 200  DATA REDUNDANCY IN SHELL       : 2.40                               
 200  R MERGE FOR SHELL          (I) : 1.17200                            
 200  R SYM FOR SHELL            (I) : NULL                               
 200  <I/SIGMA(I)> FOR SHELL         : NULL                               
 200                                                                      
 200 DIFFRACTION PROTOCOL: SINGLE WAVELENGTH                              
 200 METHOD USED TO DETERMINE THE STRUCTURE: MOLECULAR REPLACEMENT        
 200 SOFTWARE USED: PHENIX                                                
 200 STARTING MODEL: 4HBT                                                 
 200                                                                      
 200 REMARK: NULL                                                         
 280                                                                      
 280 CRYSTAL                                                              
 280 SOLVENT CONTENT, VS   (%): 46.31                                     
 280 MATTHEWS COEFFICIENT, VM (ANGSTROMS**3/DA): 2.29                     
 280                                                                      
 280 CRYSTALLIZATION CONDITIONS: 300 MM AMMONIUM SULFATE, 30% PEG 4000,   
 280  PH 6.8, VAPOR DIFFUSION, HANGING DROP, TEMPERATURE 293K             
 290                                                                      
 290 CRYSTALLOGRAPHIC SYMMETRY                                            
 290 SYMMETRY OPERATORS FOR SPACE GROUP: C 1 2 1                          
 290                                                                      
 290      SYMOP   SYMMETRY                                                
 290     NNNMMM   OPERATOR                                                
 290       1555   X,Y,Z                                                   
 290       2555   -X,Y,-Z                                                 
 290       3555   X+1/2,Y+1/2,Z                                           
 290       4555   -X+1/2,Y+1/2,-Z                                         
 290                                                                      
 290     WHERE NNN -> OPERATOR NUMBER                                     
 290           MMM -> TRANSLATION VECTOR                                  
 290                                                                      
 290 CRYSTALLOGRAPHIC SYMMETRY TRANSFORMATIONS                            
 290 THE FOLLOWING TRANSFORMATIONS OPERATE ON THE ATOM/HETATM             
 290 RECORDS IN THIS ENTRY TO PRODUCE CRYSTALLOGRAPHICALLY                
 290 RELATED MOLECULES.                                                   
 290   SMTRY1   1  1.000000  0.000000  0.000000        0.00000            
 290   SMTRY2   1  0.000000  1.000000  0.000000        0.00000            
 290   SMTRY3   1  0.000000  0.000000  1.000000        0.00000            
 290   SMTRY1   2 -1.000000  0.000000  0.000000        0.00000            
 290   SMTRY2   2  0.000000  1.000000  0.000000        0.00000            
 290   SMTRY3   2  0.000000  0.000000 -1.000000        0.00000            
 290   SMTRY1   3  1.000000  0.000000  0.000000       85.47750            
 290   SMTRY2   3  0.000000  1.000000  0.000000       25.46950            
 290   SMTRY3   3  0.000000  0.000000  1.000000        0.00000            
 290   SMTRY1   4 -1.000000  0.000000  0.000000       85.47750            
 290   SMTRY2   4  0.000000  1.000000  0.000000       25.46950            
 290   SMTRY3   4  0.000000  0.000000 -1.000000        0.00000            
 290                                                                      
 290 REMARK: NULL                                                         
 300                                                                      
 300 BIOMOLECULE: 1, 2, 3                                                 
 300 SEE REMARK 350 FOR THE AUTHOR PROVIDED AND/OR PROGRAM                
 300 GENERATED ASSEMBLY INFORMATION FOR THE STRUCTURE IN                  
 300 THIS ENTRY. THE REMARK MAY ALSO PROVIDE INFORMATION ON               
 300 BURIED SURFACE AREA.                                                 
 350                                                                      
 350 COORDINATES FOR A COMPLETE MULTIMER REPRESENTING THE KNOWN           
 350 BIOLOGICALLY SIGNIFICANT OLIGOMERIZATION STATE OF THE                
 350 MOLECULE CAN BE GENERATED BY APPLYING BIOMT TRANSFORMATIONS          
 350 GIVEN BELOW.  BOTH NON-CRYSTALLOGRAPHIC AND                          
 350 CRYSTALLOGRAPHIC OPERATIONS ARE GIVEN.                               
 350                                                                      
 350 BIOMOLECULE: 1                                                       
 350 AUTHOR DETERMINED BIOLOGICAL UNIT: MONOMERIC                         
 350 APPLY THE FOLLOWING TO CHAINS: A                                     
 350   BIOMT1   1  1.000000  0.000000  0.000000        0.00000            
 350   BIOMT2   1  0.000000  1.000000  0.000000        0.00000            
 350   BIOMT3   1  0.000000  0.000000  1.000000        0.00000            
 350                                                                      
 350 BIOMOLECULE: 2                                                       
 350 AUTHOR DETERMINED BIOLOGICAL UNIT: MONOMERIC                         
 350 APPLY THE FOLLOWING TO CHAINS: B                                     
 350   BIOMT1   1  1.000000  0.000000  0.000000        0.00000            
 350   BIOMT2   1  0.000000  1.000000  0.000000        0.00000            
 350   BIOMT3   1  0.000000  0.000000  1.000000        0.00000            
 350                                                                      
 350 BIOMOLECULE: 3                                                       
 350 AUTHOR DETERMINED BIOLOGICAL UNIT: MONOMERIC                         
 350 APPLY THE FOLLOWING TO CHAINS: C                                     
 350   BIOMT1   1  1.000000  0.000000  0.000000        0.00000            
 350   BIOMT2   1  0.000000  1.000000  0.000000        0.00000            
 350   BIOMT3   1  0.000000  0.000000  1.000000        0.00000            
 375                                                                      
 375 SPECIAL POSITION                                                     
 375 THE FOLLOWING ATOMS ARE FOUND TO BE WITHIN 0.15 ANGSTROMS            
 375 OF A SYMMETRY RELATED ATOM AND ARE ASSUMED TO BE ON SPECIAL          
 375 POSITIONS.                                                           
 375                                                                      
 375 ATOM RES CSSEQI                                                      
 375      HOH B 431  LIES ON A SPECIAL POSITION.                          
 465                                                                      
 465 MISSING RESIDUES                                                     
 465 THE FOLLOWING RESIDUES WERE NOT LOCATED IN THE                       
 465 EXPERIMENT. (M=MODEL NUMBER; RES=RESIDUE NAME; C=CHAIN               
 465 IDENTIFIER; SSSEQ=SEQUENCE NUMBER; I=INSERTION CODE.)                
 465                                                                      
 465   M RES C SSSEQI                                                     
 465     MET A    -2                                                      
 465     VAL A    -1                                                      
 465     LYS A     0                                                      
 465     LYS A     1                                                      
 465     SER A     2                                                      
 465     LEU A     3                                                      
 465     ARG A     4                                                      
 465     GLN A     5                                                      
 465     PHE A     6                                                      
 465     THR A     7                                                      
 465     LEU A     8                                                      
 465     MET A     9                                                      
 465     ALA A    10                                                      
 465     THR A    11                                                      
 465     ALA A    12                                                      
 465     THR A    13                                                      
 465     VAL A    14                                                      
 465     THR A    15                                                      
 465     LEU A    16                                                      
 465     LEU A    17                                                      
 465     LEU A    18                                                      
 465     GLY A    19                                                      
 465     SER A    20                                                      
 465     VAL A    21                                                      
 465     PRO A    22                                                      
 465     LEU A    23                                                      
 465     TYR A    24                                                      
 465     PRO A    25                                                      
 465     LEU A    26                                                      
 465     THR A    27                                                      
 465     MET B    -2                                                      
 465     VAL B    -1                                                      
 465     LYS B     0                                                      
 465     LYS B     1                                                      
 465     SER B     2                                                      
 465     LEU B     3                                                      
 465     ARG B     4                                                      
 465     GLN B     5                                                      
 465     PHE B     6                                                      
 465     THR B     7                                                      
 465     LEU B     8                                                      
 465     MET B     9                                                      
 465     ALA B    10                                                      
 465     THR B    11                                                      
 465     ALA B    12                                                      
 465     THR B    13                                                      
 465     VAL B    14                                                      
 465     THR B    15                                                      
 465     LEU B    16                                                      
 465     LEU B    17                                                      
 465     LEU B    18                                                      
 465     GLY B    19                                                      
 465     SER B    20                                                      
 465     VAL B    21                                                      
 465     PRO B    22                                                      
 465     LEU B    23                                                      
 465     TYR B    24                                                      
 465     PRO B    25                                                      
 465     LEU B    26                                                      
 465     THR B    27                                                      
 465     MET C    -2                                                      
 465     VAL C    -1                                                      
 465     LYS C     0                                                      
 465     LYS C     1                                                      
 465     SER C     2                                                      
 465     LEU C     3                                                      
 465     ARG C     4                                                      
 465     GLN C     5                                                      
 465     PHE C     6                                                      
 465     THR C     7                                                      
 465     LEU C     8                                                      
 465     MET C     9                                                      
 465     ALA C    10                                                      
 465     THR C    11                                                      
 465     ALA C    12                                                      
 465     THR C    13                                                      
 465     VAL C    14                                                      
 465     THR C    15                                                      
 465     LEU C    16                                                      
 465     LEU C    17                                                      
 465     LEU C    18                                                      
 465     GLY C    19                                                      
 465     SER C    20                                                      
 465     VAL C    21                                                      
 465     PRO C    22                                                      
 465     LEU C    23                                                      
 465     TYR C    24                                                      
 465     PRO C    25                                                      
 465     LEU C    26                                                      
 465     THR C    27                                                      
 500                                                                      
 500 GEOMETRY AND STEREOCHEMISTRY                                         
 500 SUBTOPIC: CLOSE CONTACTS IN SAME ASYMMETRIC UNIT                     
 500                                                                      
 500 THE FOLLOWING ATOMS ARE IN CLOSE CONTACT.                            
 500                                                                      
 500  ATM1  RES C  SSEQI   ATM2  RES C  SSEQI           DISTANCE          
 500   OG   SER C    70     O09  NW3 C   301              1.50            
 500   O    ASN A    92     O    HOH A   401              1.91            
 500   CB   SER B    70     C08  NW3 B   301              1.92            
 500   O    HOH C   463     O    HOH C   470              1.92            
 500   O    HOH C   454     O    HOH C   460              1.94            
 500   O    ASN C    89     O    HOH C   401              1.95            
 500   O    HOH A   502     O    HOH A   504              1.95            
 500   OE1  GLU B   158     O    HOH B   401              1.95            
 500   O    HOH A   446     O    HOH A   509              1.96            
 500   O    HOH C   419     O    HOH C   463              1.97            
 500   O    HOH A   422     O    HOH A   427              1.99            
 500   O    HOH A   477     O    HOH C   467              1.99            
 500   CB   SER A    70     C08  NW3 A   301              2.00            
 500   O    HOH A   487     O    HOH A   500              2.01            
 500   OE1  GLN A   222     O    HOH A   402              2.02            
 500   N    ALA C   223     O    HOH C   402              2.05            
 500   O    ASP C   286     O    HOH C   403              2.06            
 500   O    LEU C   162     O    HOH C   404              2.06            
 500   N    ASN C    92     O    HOH C   401              2.06            
 500   OG   SER C   228     O    HOH C   405              2.06            
 500   OD2  ASP A   286     O    HOH A   403              2.07            
 500   O    HOH C   412     O    HOH C   461              2.07            
 500   O    HOH B   451     O    HOH B   461              2.07            
 500   OE1  GLN A   188     O    HOH A   404              2.08            
 500   O    HOH B   443     O    HOH B   465              2.10            
 500   OE2  GLU C    36     NH1  ARG C    39              2.12            
 500   O09  NW3 C   301     O    HOH C   406              2.12            
 500   O    HOH B   443     O    HOH B   454              2.12            
 500   N    GLU A    36     O    HOH A   405              2.13            
 500   N    GLN C   222     O    HOH C   402              2.13            
 500   O    HOH A   489     O    HOH A   490              2.14            
 500   O    HOH A   443     O    HOH A   453              2.14            
 500   O    ALA C    48     O    HOH C   407              2.16            
 500                                                                      
 500 REMARK: NULL                                                         
 500                                                                      
 500 GEOMETRY AND STEREOCHEMISTRY                                         
 500 SUBTOPIC: TORSION ANGLES                                             
 500                                                                      
 500 TORSION ANGLES OUTSIDE THE EXPECTED RAMACHANDRAN REGIONS:            
 500 (M=MODEL NUMBER; RES=RESIDUE NAME; C=CHAIN IDENTIFIER;               
 500 SSEQ=SEQUENCE NUMBER; I=INSERTION CODE).                             
 500                                                                      
 500 STANDARD TABLE:                                                      
 500 FORMAT:(10X,I3,1X,A3,1X,A1,I4,A1,4X,F7.2,3X,F7.2)                    
 500                                                                      
 500 EXPECTED VALUES: GJ KLEYWEGT AND TA JONES (1996). PHI/PSI-           
 500 CHOLOGY: RAMACHANDRAN REVISITED. STRUCTURE 4, 1395 - 1400            
 500                                                                      
 500  M RES CSSEQI        PSI       PHI                                   
 500    ASP A  54       12.53   -143.33                                   
 500    CYS A  69     -145.83     63.55                                   
 500    ASN A  89       39.42    -93.13                                   
 500    VAL A 103     -136.71   -120.62                                   
 500    ASN A 106       44.70   -141.55                                   
 500    LEU A 169        2.18    -68.04                                   
 500    SER A 220     -125.55   -108.52                                   
 500    CYS B  69     -150.85     44.72                                   
 500    PRO B  88      -82.91    -29.36                                   
 500    ASN B  89       48.78    -99.09                                   
 500    VAL B 103     -162.44   -122.21                                   
 500    ASN B 106       61.18   -163.50                                   
 500    LEU B 169        0.95    -69.93                                   
 500    LEU B 195      -30.76   -131.06                                   
 500    SER B 220     -128.16    -99.55                                   
 500    LYS B 252      113.23    -22.88                                   
 500    ASP B 253       48.07     26.09                                   
 500    CYS C  69     -139.05     55.55                                   
 500    VAL C 103     -135.91   -109.27                                   
 500    ASN C 106       61.58   -166.60                                   
 500    SER C 220     -114.58   -101.18                                   
 500    ASP C 253       18.48     59.15                                   
 500    LYS C 269       32.40    -98.75                                   
 500    ASP C 286      107.23    -51.65                                   
 500                                                                      
 500 REMARK: NULL                                                         
 500                                                                      
 500 GEOMETRY AND STEREOCHEMISTRY                                         
 500 SUBTOPIC: PLANAR GROUPS                                              
 500                                                                      
 500 PLANAR GROUPS IN THE FOLLOWING RESIDUES HAVE A TOTAL                 
 500 RMS DISTANCE OF ALL ATOMS FROM THE BEST-FIT PLANE                    
 500 BY MORE THAN AN EXPECTED VALUE OF 6*RMSD, WITH AN                    
 500 RMSD 0.02 ANGSTROMS, OR AT LEAST ONE ATOM HAS                        
 500 AN RMSD GREATER THAN THIS VALUE                                      
 500 (M=MODEL NUMBER; RES=RESIDUE NAME; C=CHAIN IDENTIFIER;               
 500 SSEQ=SEQUENCE NUMBER; I=INSERTION CODE).                             
 500                                                                      
 500  M RES CSSEQI        RMS     TYPE                                    
 500    ARG A 254         0.08    SIDE CHAIN                              
 500                                                                      
 500 REMARK: NULL                                                         

>  <DBREF>  (1) 
 7U4B A   -2   287  UNP    C7S9T0   C7S9T0_ECOLX    21    310             
 7U4B B   -2   287  UNP    C7S9T0   C7S9T0_ECOLX    21    310             
 7U4B C   -2   287  UNP    C7S9T0   C7S9T0_ECOLX    21    310             

>  <SEQADV>  (1) 
 7U4B PRO A   25  UNP  C7S9T0    ALA    48 ENGINEERED MUTATION            
 7U4B LEU A   26  UNP  C7S9T0    GLN    49 ENGINEERED MUTATION            
 7U4B PRO B   25  UNP  C7S9T0    ALA    48 ENGINEERED MUTATION            
 7U4B LEU B   26  UNP  C7S9T0    GLN    49 ENGINEERED MUTATION            
 7U4B PRO C   25  UNP  C7S9T0    ALA    48 ENGINEERED MUTATION            
 7U4B LEU C   26  UNP  C7S9T0    GLN    49 ENGINEERED MUTATION            

>  <SEQRES>  (1) 
   1 A  290  MET VAL LYS LYS SER LEU ARG GLN PHE THR LEU MET ALA          
   2 A  290  THR ALA THR VAL THR LEU LEU LEU GLY SER VAL PRO LEU          
   3 A  290  TYR PRO LEU THR ALA ASP VAL GLN GLN LYS LEU ALA GLU          
   4 A  290  LEU GLU ARG GLN SER GLY GLY ARG LEU GLY VAL ALA LEU          
   5 A  290  ILE ASN THR ALA ASP ASN SER GLN ILE LEU TYR ARG ALA          
   6 A  290  ASP GLU ARG PHE ALA MET CYS SER THR SER LYS VAL MET          
   7 A  290  ALA ALA ALA ALA VAL LEU LYS LYS SER GLU SER GLU PRO          
   8 A  290  ASN LEU LEU ASN GLN ARG VAL GLU ILE LYS LYS SER ASP          
   9 A  290  LEU VAL ASN TYR ASN PRO ILE ALA GLU LYS HIS VAL ASN          
  10 A  290  GLY THR MET SER LEU ALA GLU LEU SER ALA ALA ALA LEU          
  11 A  290  GLN TYR SER ASP ASN VAL ALA MET ASN LYS LEU ILE ALA          
  12 A  290  HIS VAL GLY GLY PRO ALA SER VAL THR ALA PHE ALA ARG          
  13 A  290  GLN LEU GLY ASP GLU THR PHE ARG LEU ASP ARG THR GLU          
  14 A  290  PRO THR LEU ASN THR ALA ILE PRO GLY ASP PRO ARG ASP          
  15 A  290  THR THR SER PRO ARG ALA MET ALA GLN THR LEU ARG ASN          
  16 A  290  LEU THR LEU GLY LYS ALA LEU GLY ASP SER GLN ARG ALA          
  17 A  290  GLN LEU VAL THR TRP MET LYS GLY ASN THR THR GLY ALA          
  18 A  290  ALA SER ILE GLN ALA GLY LEU PRO ALA SER TRP VAL VAL          
  19 A  290  GLY ASP LYS THR GLY SER GLY GLY TYR GLY THR THR ASN          
  20 A  290  ASP ILE ALA VAL ILE TRP PRO LYS ASP ARG ALA PRO LEU          
  21 A  290  ILE LEU VAL THR TYR PHE THR GLN PRO GLN PRO LYS ALA          
  22 A  290  GLU SER ARG ARG ASP VAL LEU ALA SER ALA ALA LYS ILE          
  23 A  290  VAL THR ASP GLY                                              
   1 B  290  MET VAL LYS LYS SER LEU ARG GLN PHE THR LEU MET ALA          
   2 B  290  THR ALA THR VAL THR LEU LEU LEU GLY SER VAL PRO LEU          
   3 B  290  TYR PRO LEU THR ALA ASP VAL GLN GLN LYS LEU ALA GLU          
   4 B  290  LEU GLU ARG GLN SER GLY GLY ARG LEU GLY VAL ALA LEU          
   5 B  290  ILE ASN THR ALA ASP ASN SER GLN ILE LEU TYR ARG ALA          
   6 B  290  ASP GLU ARG PHE ALA MET CYS SER THR SER LYS VAL MET          
   7 B  290  ALA ALA ALA ALA VAL LEU LYS LYS SER GLU SER GLU PRO          
   8 B  290  ASN LEU LEU ASN GLN ARG VAL GLU ILE LYS LYS SER ASP          
   9 B  290  LEU VAL ASN TYR ASN PRO ILE ALA GLU LYS HIS VAL ASN          
  10 B  290  GLY THR MET SER LEU ALA GLU LEU SER ALA ALA ALA LEU          
  11 B  290  GLN TYR SER ASP ASN VAL ALA MET ASN LYS LEU ILE ALA          
  12 B  290  HIS VAL GLY GLY PRO ALA SER VAL THR ALA PHE ALA ARG          
  13 B  290  GLN LEU GLY ASP GLU THR PHE ARG LEU ASP ARG THR GLU          
  14 B  290  PRO THR LEU ASN THR ALA ILE PRO GLY ASP PRO ARG ASP          
  15 B  290  THR THR SER PRO ARG ALA MET ALA GLN THR LEU ARG ASN          
  16 B  290  LEU THR LEU GLY LYS ALA LEU GLY ASP SER GLN ARG ALA          
  17 B  290  GLN LEU VAL THR TRP MET LYS GLY ASN THR THR GLY ALA          
  18 B  290  ALA SER ILE GLN ALA GLY LEU PRO ALA SER TRP VAL VAL          
  19 B  290  GLY ASP LYS THR GLY SER GLY GLY TYR GLY THR THR ASN          
  20 B  290  ASP ILE ALA VAL ILE TRP PRO LYS ASP ARG ALA PRO LEU          
  21 B  290  ILE LEU VAL THR TYR PHE THR GLN PRO GLN PRO LYS ALA          
  22 B  290  GLU SER ARG ARG ASP VAL LEU ALA SER ALA ALA LYS ILE          
  23 B  290  VAL THR ASP GLY                                              
   1 C  290  MET VAL LYS LYS SER LEU ARG GLN PHE THR LEU MET ALA          
   2 C  290  THR ALA THR VAL THR LEU LEU LEU GLY SER VAL PRO LEU          
   3 C  290  TYR PRO LEU THR ALA ASP VAL GLN GLN LYS LEU ALA GLU          
   4 C  290  LEU GLU ARG GLN SER GLY GLY ARG LEU GLY VAL ALA LEU          
   5 C  290  ILE ASN THR ALA ASP ASN SER GLN ILE LEU TYR ARG ALA          
   6 C  290  ASP GLU ARG PHE ALA MET CYS SER THR SER LYS VAL MET          
   7 C  290  ALA ALA ALA ALA VAL LEU LYS LYS SER GLU SER GLU PRO          
   8 C  290  ASN LEU LEU ASN GLN ARG VAL GLU ILE LYS LYS SER ASP          
   9 C  290  LEU VAL ASN TYR ASN PRO ILE ALA GLU LYS HIS VAL ASN          
  10 C  290  GLY THR MET SER LEU ALA GLU LEU SER ALA ALA ALA LEU          
  11 C  290  GLN TYR SER ASP ASN VAL ALA MET ASN LYS LEU ILE ALA          
  12 C  290  HIS VAL GLY GLY PRO ALA SER VAL THR ALA PHE ALA ARG          
  13 C  290  GLN LEU GLY ASP GLU THR PHE ARG LEU ASP ARG THR GLU          
  14 C  290  PRO THR LEU ASN THR ALA ILE PRO GLY ASP PRO ARG ASP          
  15 C  290  THR THR SER PRO ARG ALA MET ALA GLN THR LEU ARG ASN          
  16 C  290  LEU THR LEU GLY LYS ALA LEU GLY ASP SER GLN ARG ALA          
  17 C  290  GLN LEU VAL THR TRP MET LYS GLY ASN THR THR GLY ALA          
  18 C  290  ALA SER ILE GLN ALA GLY LEU PRO ALA SER TRP VAL VAL          
  19 C  290  GLY ASP LYS THR GLY SER GLY GLY TYR GLY THR THR ASN          
  20 C  290  ASP ILE ALA VAL ILE TRP PRO LYS ASP ARG ALA PRO LEU          
  21 C  290  ILE LEU VAL THR TYR PHE THR GLN PRO GLN PRO LYS ALA          
  22 C  290  GLU SER ARG ARG ASP VAL LEU ALA SER ALA ALA LYS ILE          
  23 C  290  VAL THR ASP GLY                                              

>  <HET>  (1) 
 NW3  A 301      24                                                       
 NW3  B 301      24                                                       
 SO4  B 302       5                                                       
 NW3  C 301      24                                                       

>  <HETNAM>  (1) 
     NW3 (2S,4S)-2-[(1S)-1-{[(2S)-2-AMINO-2-PHENYLACETYL]AMINO}-          
   2 NW3  2-OXOETHYL]-5,5-DIMETHYL-1,3-THIAZOLIDINE-4-CARBOXYLIC          
   3 NW3  ACID                                                            
     SO4 SULFATE ION                                                      

>  <FORMUL>  (1) 
   4  NW3    3(C16 H21 N3 O4 S)                                           
   6  SO4    O4 S 2-                                                      
   8  HOH   *251(H2 O)                                                    

>  <HELIX>  (1) 
   1 AA1 ALA A   28  SER A   41  1                                  14    
   2 AA2 CYS A   69  THR A   71  5                                   3    
   3 AA3 SER A   72  GLU A   85  1                                  14    
   4 AA4 ASN A   89  ASN A   92  5                                   4    
   5 AA5 LYS A   98  LEU A  102  5                                   5    
   6 AA6 ILE A  108  HIS A  112  5                                   5    
   7 AA7 LEU A  119  TYR A  129  1                                  11    
   8 AA8 ASP A  131  GLY A  143  1                                  13    
   9 AA9 GLY A  144  LEU A  155  1                                  12    
  10 AB1 PRO A  167  THR A  171  5                                   5    
  11 AB2 SER A  182  LEU A  195  1                                  14    
  12 AB3 GLY A  200  GLY A  213  1                                  14    
  13 AB4 SER A  220  LEU A  225  5                                   6    
  14 AB5 ARG A  273  ASP A  286  1                                  14    
  15 AB6 ASP B   29  GLY B   42  1                                  14    
  16 AB7 THR B   71  GLU B   87  1                                  17    
  17 AB8 ASN B   89  ASN B   92  5                                   4    
  18 AB9 LYS B   98  LEU B  102  5                                   5    
  19 AC1 ILE B  108  VAL B  113  5                                   6    
  20 AC2 LEU B  119  TYR B  129  1                                  11    
  21 AC3 ASP B  131  GLY B  143  1                                  13    
  22 AC4 GLY B  144  LEU B  155  1                                  12    
  23 AC5 PRO B  167  THR B  171  5                                   5    
  24 AC6 SER B  182  LEU B  195  1                                  14    
  25 AC7 GLY B  200  GLY B  213  1                                  14    
  26 AC8 SER B  220  LEU B  225  5                                   6    
  27 AC9 ARG B  273  ASP B  286  1                                  14    
  28 AD1 ASP C   29  SER C   41  1                                  13    
  29 AD2 THR C   71  GLU C   85  1                                  15    
  30 AD3 ASN C   89  ASN C   92  5                                   4    
  31 AD4 LYS C   98  LEU C  102  5                                   5    
  32 AD5 ILE C  108  VAL C  113  5                                   6    
  33 AD6 LEU C  119  SER C  130  1                                  12    
  34 AD7 ASP C  131  GLY C  143  1                                  13    
  35 AD8 GLY C  144  LEU C  155  1                                  12    
  36 AD9 PRO C  167  THR C  171  5                                   5    
  37 AE1 SER C  182  LEU C  195  1                                  14    
  38 AE2 GLY C  200  GLY C  213  1                                  14    
  39 AE3 ILE C  221  LEU C  225  5                                   5    
  40 AE4 ARG C  273  ASP C  286  1                                  14    

>  <SHEET>  (1) 
   1 AA1 5 GLN A  57  TYR A  60  0                                        
   2 AA1 5 ARG A  44  ASN A  51 -1  N  VAL A  47   O  TYR A  60           
   3 AA1 5 LEU A 257  THR A 264 -1  O  TYR A 262   N  GLY A  46           
   4 AA1 5 THR A 243  TRP A 250 -1  N  THR A 243   O  PHE A 263           
   5 AA1 5 VAL A 230  SER A 237 -1  N  GLY A 232   O  VAL A 248           
   1 AA2 2 PHE A  66  ALA A  67  0                                        
   2 AA2 2 THR A 180  THR A 181 -1  O  THR A 181   N  PHE A  66           
   1 AA3 2 ARG A  94  ILE A  97  0                                        
   2 AA3 2 GLY A 115  SER A 118 -1  O  GLY A 115   N  ILE A  97           
   1 AA4 5 SER B  56  TYR B  60  0                                        
   2 AA4 5 ARG B  44  ASN B  51 -1  N  ASN B  51   O  SER B  56           
   3 AA4 5 LEU B 257  THR B 264 -1  O  THR B 264   N  ARG B  44           
   4 AA4 5 THR B 243  TRP B 250 -1  N  ASP B 245   O  THR B 261           
   5 AA4 5 VAL B 230  SER B 237 -1  N  GLY B 236   O  ASN B 244           
   1 AA5 2 PHE B  66  ALA B  67  0                                        
   2 AA5 2 THR B 180  THR B 181 -1  O  THR B 181   N  PHE B  66           
   1 AA6 2 ARG B  94  ILE B  97  0                                        
   2 AA6 2 GLY B 115  SER B 118 -1  O  GLY B 115   N  ILE B  97           
   1 AA7 5 SER C  56  TYR C  60  0                                        
   2 AA7 5 ARG C  44  ASN C  51 -1  N  LEU C  49   O  ILE C  58           
   3 AA7 5 LEU C 257  THR C 264 -1  O  TYR C 262   N  GLY C  46           
   4 AA7 5 THR C 243  TRP C 250 -1  N  THR C 243   O  PHE C 263           
   5 AA7 5 VAL C 230  SER C 237 -1  N  GLY C 236   O  ASN C 244           
   1 AA8 2 PHE C  66  ALA C  67  0                                        
   2 AA8 2 THR C 180  THR C 181 -1  O  THR C 181   N  PHE C  66           
   1 AA9 2 ARG C  94  ILE C  97  0                                        
   2 AA9 2 GLY C 115  SER C 118 -1  O  GLY C 115   N  ILE C  97           

>  <LINK>  (1) 
       OG  SER A  70                 C08 NW3 A 301     1555   1555  1.38  
       OG  SER B  70                 C08 NW3 B 301     1555   1555  1.37  
       OG  SER C  70                 C08 NW3 C 301     1555   1555  1.37  

>  <CISPEP>  (1) 
   1 GLU A  166    PRO A  167          0         4.11                     
   2 GLU B  166    PRO B  167          0         9.44                     
   3 GLU C  166    PRO C  167          0         3.34                     

>  <ORIGX1>  (1) 
      1.000000  0.000000  0.000000        0.00000                         

>  <ORIGX2>  (1) 
      0.000000  1.000000  0.000000        0.00000                         

>  <ORIGX3>  (1) 
      0.000000  0.000000  1.000000        0.00000                         

>  <SCALE1>  (1) 
      0.005849  0.000000  0.002537        0.00000                         

>  <SCALE2>  (1) 
      0.000000  0.019631  0.000000        0.00000                         

>  <SCALE3>  (1) 
      0.000000  0.000000  0.010226        0.00000                         

>  <ANISOU>  (1) 
  325  N   SER A  70     4203   3035   1927   1622    -93   -610       N  
  326  CA  SER A  70     4861   3699   2615   1636    155   -432       C  
  327  C   SER A  70     4679   3215   2433   1527    264   -305       C  
  328  O   SER A  70     4157   2748   2029   1512    463   -110       O  
  329  CB  SER A  70     5040   3818   2901   1550    233   -419       C  
  330  OG  SER A  70     6340   5498   4268   1654    226   -461       O  

>  <MASTER>  (1) 
      702    0    4   40   27    0    0    6 6172    3   80   69          

$$$$
