start_structures/Ligand_Substrate/Ligand_Complex_Stripped/7EP_3NDG.pdb
     RDKit          3D

 32 33  0  0  1  0  0  0  0  0999 V2000
   48.7949   51.8788   46.3357 N   0  0  0  0  0  0  0  0  0  0  0  0
   47.4449   51.3839   46.5432 C   0  0  2  0  0  0  0  0  0  0  0  0
   47.4039   49.8882   46.4406 C   0  0  0  0  0  0  0  0  0  0  0  0
   46.4742   49.2685   46.9364 O   0  0  0  0  0  0  0  0  0  0  0  0
   46.5144   52.0005   45.5091 C   0  0  0  0  0  0  0  0  0  0  0  0
   46.1677   53.3301   45.8750 O   0  0  0  0  0  0  0  0  0  0  0  0
   45.2928   54.0980   45.1079 C   0  0  0  0  0  0  0  0  0  0  0  0
   45.8710   56.5175   44.7116 N   0  0  0  0  0  0  0  0  0  0  0  0
   44.7788   53.6284   44.0551 O   0  0  0  0  0  0  0  0  0  0  0  0
   45.0001   55.5058   45.5301 C   0  0  1  0  0  0  0  0  0  0  0  0
   43.5092   55.8449   45.4265 C   0  0  2  0  0  0  0  0  0  0  0  0
   43.8147   56.2404   39.5200 C   0  0  0  0  0  0  0  0  0  0  0  0
   49.3456   54.4244   44.0893 C   0  0  0  0  0  0  0  0  0  0  0  0
   41.3176   56.0724   48.6684 C   0  0  0  0  0  0  0  0  0  0  0  0
   40.4026   56.4789   46.4175 C   0  0  0  0  0  0  0  0  0  0  0  0
   43.6891   58.8144   48.6070 O   0  0  0  0  0  0  0  0  0  0  0  0
   46.2734   56.9858   44.3324 O   0  0  0  0  0  0  0  0  0  0  0  0
   44.5205   56.6887   48.4258 O   0  0  0  0  0  0  0  0  0  0  0  0
   47.3557   53.9770   40.3344 C   0  0  0  0  0  0  0  0  0  0  0  0
   46.2047   54.7127   40.0644 C   0  0  0  0  0  0  0  0  0  0  0  0
   47.9986   54.1195   41.5615 C   0  0  0  0  0  0  0  0  0  0  0  0
   43.2886   57.2719   45.6809 N   0  0  0  0  0  0  0  0  0  0  0  0
   44.5214   56.3353   40.7495 O   0  0  0  0  0  0  0  0  0  0  0  0
   48.1625   55.1402   43.7613 O   0  0  0  0  0  0  0  0  0  0  0  0
   42.5259   54.8100   46.5704 S   0  0  0  0  0  0  0  0  0  0  0  0
   43.6339   57.6895   48.0466 C   0  0  0  0  0  0  0  0  0  0  0  0
   45.7247   56.6754   43.2465 C   0  0  0  0  0  0  0  0  0  0  0  0
   45.6813   55.5970   41.0197 C   0  0  0  0  0  0  0  0  0  0  0  0
   47.4993   54.9978   42.5360 C   0  0  0  0  0  0  0  0  0  0  0  0
   46.3232   55.7416   42.2660 C   0  0  0  0  0  0  0  0  0  0  0  0
   42.6184   57.4500   46.9642 C   0  0  2  0  0  0  0  0  0  0  0  0
   41.6828   56.2693   47.2044 C   0  0  0  0  0  0  0  0  0  0  0  0
  2  1  1  6
  2  5  1  0
  2  3  1  0
  3  4  2  0
  6  7  1  0
  6  5  1  0
  7  9  2  0
 10  8  1  6
  8 27  1  0
 10  7  1  0
 11 10  1  0
 11 22  1  1
 11 25  1  0
 12 23  1  0
 13 24  1  0
 14 32  1  0
 15 32  1  0
 16 26  2  0
 17 27  2  0
 18 26  1  0
 19 20  2  0
 19 21  1  0
 20 28  1  0
 21 29  2  0
 22 31  1  0
 23 28  1  0
 24 29  1  0
 25 32  1  0
 27 30  1  0
 28 30  2  0
 29 30  1  0
 31 26  1  6
 31 32  1  0
M  END
>  <HEADER>  (1) 
    HYDROLASE/ANTIBIOTIC                    07-JUN-10   3NDG              

>  <TITLE>  (1) 
    CRYSTAL STRUCTURE OF BLAC-E166A COVALENTLY BOUND WITH METHICILLIN     

>  <COMPND>  (1) 
    MOL_ID: 1;                                                            
   2 MOLECULE: BETA-LACTAMASE;                                            
   3 CHAIN: A;                                                            
   4 SYNONYM: PENICILLINASE;                                              
   5 EC: 3.5.2.6;                                                         
   6 ENGINEERED: YES;                                                     
   7 MUTATION: YES                                                        

>  <SOURCE>  (1) 
    MOL_ID: 1;                                                            
   2 ORGANISM_SCIENTIFIC: MYCOBACTERIUM TUBERCULOSIS;                     
   3 ORGANISM_TAXID: 1773;                                                
   4 GENE: BLAA, BLAC, MT2128, MTCY49.07C, RV2068C;                       
   5 EXPRESSION_SYSTEM: ESCHERICHIA COLI;                                 
   6 EXPRESSION_SYSTEM_TAXID: 562;                                        
   7 EXPRESSION_SYSTEM_STRAIN: ROSETTA2;                                  
   8 EXPRESSION_SYSTEM_VECTOR: PLASMID;                                   
   9 EXPRESSION_SYSTEM_PLASMID: PET28A                                    

>  <KEYWDS>  (1) 
    PENICILLIN BINDING PROTEIN, BETA-LACTAM COVALENT ADDUCT, HYDROLASE-   
   2 ANTIBIOTIC COMPLEX                                                   

>  <EXPDTA>  (1) 
    X-RAY DIFFRACTION                                                     

>  <AUTHOR>  (1) 
    L.W.TREMBLAY,J.S.BLANCHARD                                            

>  <REVDAT>  (1) 
   3   08-NOV-17 3NDG    1       REMARK                                   
   2   28-MAR-12 3NDG    1       HEADER KEYWDS HETSYN                     
   1   14-DEC-11 3NDG    0                                                

>  <JRNL>  (1) 
      AUTH   L.W.TREMBLAY,J.S.BLANCHARD                                   
      TITL   BLAC-E166A COVALENTLY BOUND WITH CEPHALOSPORINS AND          
      TITL 2 PENICILLINS                                                  
      REF    TO BE PUBLISHED                                              
      REFN                                                                

>  <REMARK>  (1) 
   2                                                                      
   2 RESOLUTION.    1.90 ANGSTROMS.                                       
   3                                                                      
   3 REFINEMENT.                                                          
   3   PROGRAM     : REFMAC 5.2.0019                                      
   3   AUTHORS     : MURSHUDOV,VAGIN,DODSON                               
   3                                                                      
   3    REFINEMENT TARGET : MAXIMUM LIKELIHOOD                            
   3                                                                      
   3  DATA USED IN REFINEMENT.                                            
   3   RESOLUTION RANGE HIGH (ANGSTROMS) : 1.90                           
   3   RESOLUTION RANGE LOW  (ANGSTROMS) : 39.94                          
   3   DATA CUTOFF            (SIGMA(F)) : 0.000                          
   3   COMPLETENESS FOR RANGE        (%) : 96.0                           
   3   NUMBER OF REFLECTIONS             : 19808                          
   3                                                                      
   3  FIT TO DATA USED IN REFINEMENT.                                     
   3   CROSS-VALIDATION METHOD          : THROUGHOUT                      
   3   FREE R VALUE TEST SET SELECTION  : RANDOM                          
   3   R VALUE     (WORKING + TEST SET) : 0.155                           
   3   R VALUE            (WORKING SET) : 0.153                           
   3   FREE R VALUE                     : 0.191                           
   3   FREE R VALUE TEST SET SIZE   (%) : 5.100                           
   3   FREE R VALUE TEST SET COUNT      : 1018                            
   3                                                                      
   3  FIT IN THE HIGHEST RESOLUTION BIN.                                  
   3   TOTAL NUMBER OF BINS USED           : 20                           
   3   BIN RESOLUTION RANGE HIGH       (A) : 1.90                         
   3   BIN RESOLUTION RANGE LOW        (A) : 1.95                         
   3   REFLECTION IN BIN     (WORKING SET) : 1348                         
   3   BIN COMPLETENESS (WORKING+TEST) (%) : 95.36                        
   3   BIN R VALUE           (WORKING SET) : 0.1670                       
   3   BIN FREE R VALUE SET COUNT          : 71                           
   3   BIN FREE R VALUE                    : 0.2210                       
   3                                                                      
   3  NUMBER OF NON-HYDROGEN ATOMS USED IN REFINEMENT.                    
   3   PROTEIN ATOMS            : 1984                                    
   3   NUCLEIC ACID ATOMS       : 0                                       
   3   HETEROGEN ATOMS          : 36                                      
   3   SOLVENT ATOMS            : 215                                     
   3                                                                      
   3  B VALUES.                                                           
   3   FROM WILSON PLOT           (A**2) : 15.32                          
   3   MEAN B VALUE      (OVERALL, A**2) : 17.13                          
   3   OVERALL ANISOTROPIC B VALUE.                                       
   3    B11 (A**2) : -0.01000                                             
   3    B22 (A**2) : 0.01000                                              
   3    B33 (A**2) : 0.00000                                              
   3    B12 (A**2) : 0.00000                                              
   3    B13 (A**2) : 0.00000                                              
   3    B23 (A**2) : 0.00000                                              
   3                                                                      
   3  ESTIMATED OVERALL COORDINATE ERROR.                                 
   3   ESU BASED ON R VALUE                            (A): NULL          
   3   ESU BASED ON FREE R VALUE                       (A): 0.129         
   3   ESU BASED ON MAXIMUM LIKELIHOOD                 (A): 0.078         
   3   ESU FOR B VALUES BASED ON MAXIMUM LIKELIHOOD (A**2): 2.595         
   3                                                                      
   3 CORRELATION COEFFICIENTS.                                            
   3   CORRELATION COEFFICIENT FO-FC      : 0.961                         
   3   CORRELATION COEFFICIENT FO-FC FREE : 0.937                         
   3                                                                      
   3  RMS DEVIATIONS FROM IDEAL VALUES        COUNT    RMS    WEIGHT      
   3   BOND LENGTHS REFINED ATOMS        (A):  2058 ; 0.013 ; 0.022       
   3   BOND LENGTHS OTHERS               (A):  NULL ;  NULL ;  NULL       
   3   BOND ANGLES REFINED ATOMS   (DEGREES):  2813 ; 1.392 ; 1.984       
   3   BOND ANGLES OTHERS          (DEGREES):  NULL ;  NULL ;  NULL       
   3   TORSION ANGLES, PERIOD 1    (DEGREES):   264 ; 6.153 ; 5.000       
   3   TORSION ANGLES, PERIOD 2    (DEGREES):    87 ;38.615 ;23.103       
   3   TORSION ANGLES, PERIOD 3    (DEGREES):   302 ;11.706 ;15.000       
   3   TORSION ANGLES, PERIOD 4    (DEGREES):    19 ;20.621 ;15.000       
   3   CHIRAL-CENTER RESTRAINTS       (A**3):   319 ; 0.096 ; 0.200       
   3   GENERAL PLANES REFINED ATOMS      (A):  1581 ; 0.005 ; 0.020       
   3   GENERAL PLANES OTHERS             (A):  NULL ;  NULL ;  NULL       
   3   NON-BONDED CONTACTS REFINED ATOMS (A):   972 ; 0.213 ; 0.200       
   3   NON-BONDED CONTACTS OTHERS        (A):  NULL ;  NULL ;  NULL       
   3   NON-BONDED TORSION REFINED ATOMS  (A):  1432 ; 0.301 ; 0.200       
   3   NON-BONDED TORSION OTHERS         (A):  NULL ;  NULL ;  NULL       
   3   H-BOND (X...Y) REFINED ATOMS      (A):   181 ; 0.142 ; 0.200       
   3   H-BOND (X...Y) OTHERS             (A):  NULL ;  NULL ;  NULL       
   3   POTENTIAL METAL-ION REFINED ATOMS (A):  NULL ;  NULL ;  NULL       
   3   POTENTIAL METAL-ION OTHERS        (A):  NULL ;  NULL ;  NULL       
   3   SYMMETRY VDW REFINED ATOMS        (A):    59 ; 0.207 ; 0.200       
   3   SYMMETRY VDW OTHERS               (A):  NULL ;  NULL ;  NULL       
   3   SYMMETRY H-BOND REFINED ATOMS     (A):    24 ; 0.116 ; 0.200       
   3   SYMMETRY H-BOND OTHERS            (A):  NULL ;  NULL ;  NULL       
   3   SYMMETRY METAL-ION REFINED ATOMS  (A):  NULL ;  NULL ;  NULL       
   3   SYMMETRY METAL-ION OTHERS         (A):  NULL ;  NULL ;  NULL       
   3                                                                      
   3  ISOTROPIC THERMAL FACTOR RESTRAINTS.     COUNT   RMS    WEIGHT      
   3   MAIN-CHAIN BOND REFINED ATOMS  (A**2):  1358 ; 0.792 ; 1.500       
   3   MAIN-CHAIN BOND OTHER ATOMS    (A**2):  NULL ;  NULL ;  NULL       
   3   MAIN-CHAIN ANGLE REFINED ATOMS (A**2):  2110 ; 1.294 ; 2.000       
   3   MAIN-CHAIN ANGLE OTHER ATOMS   (A**2):  NULL ;  NULL ;  NULL       
   3   SIDE-CHAIN BOND REFINED ATOMS  (A**2):   797 ; 2.179 ; 3.000       
   3   SIDE-CHAIN BOND OTHER ATOMS    (A**2):  NULL ;  NULL ;  NULL       
   3   SIDE-CHAIN ANGLE REFINED ATOMS (A**2):   703 ; 3.364 ; 4.500       
   3   SIDE-CHAIN ANGLE OTHER ATOMS   (A**2):  NULL ;  NULL ;  NULL       
   3   LONG RANGE B REFINED ATOMS     (A**2):  NULL ;  NULL ;  NULL       
   3   LONG RANGE B OTHER ATOMS       (A**2):  NULL ;  NULL ;  NULL       
   3                                                                      
   3 ANISOTROPIC THERMAL FACTOR RESTRAINTS.    COUNT   RMS   WEIGHT       
   3   RIGID-BOND RESTRAINTS          (A**2):  NULL ;  NULL ;  NULL       
   3   SPHERICITY; FREE ATOMS         (A**2):  NULL ;  NULL ;  NULL       
   3   SPHERICITY; BONDED ATOMS       (A**2):  NULL ;  NULL ;  NULL       
   3                                                                      
   3  NCS RESTRAINTS STATISTICS                                           
   3   NUMBER OF DIFFERENT NCS GROUPS : NULL                              
   3                                                                      
   3  TLS DETAILS                                                         
   3   NUMBER OF TLS GROUPS  : NULL                                       
   3                                                                      
   3  BULK SOLVENT MODELLING.                                             
   3   METHOD USED : MASK                                                 
   3   PARAMETERS FOR MASK CALCULATION                                    
   3   VDW PROBE RADIUS   : 1.20                                          
   3   ION PROBE RADIUS   : 0.80                                          
   3   SHRINKAGE RADIUS   : 0.80                                          
   3                                                                      
   3  OTHER REFINEMENT REMARKS: HYDROGENS HAVE BEEN ADDED IN THE RIDING   
   3  POSITIONS                                                           
   4                                                                      
   4 3NDG COMPLIES WITH FORMAT V. 3.30, 13-JUL-11                         
 100                                                                      
 100 THIS ENTRY HAS BEEN PROCESSED BY RCSB ON 28-JUN-10.                  
 100 THE DEPOSITION ID IS D_1000059690.                                   
 200                                                                      
 200 EXPERIMENTAL DETAILS                                                 
 200  EXPERIMENT TYPE                : X-RAY DIFFRACTION                  
 200  DATE OF DATA COLLECTION        : 2009; 2009                         
 200  TEMPERATURE           (KELVIN) : 100; 100                           
 200  PH                             : 7.5                                
 200  NUMBER OF CRYSTALS USED        : 1                                  
 200                                                                      
 200  SYNCHROTRON              (Y/N) : Y; Y                               
 200  RADIATION SOURCE               : NSLS; NSLS                         
 200  BEAMLINE                       : X12C; X29A                         
 200  X-RAY GENERATOR MODEL          : NULL; NULL                         
 200  MONOCHROMATIC OR LAUE    (M/L) : NULL; NULL                         
 200  WAVELENGTH OR RANGE        (A) : 1.000; 1.000                       
 200  MONOCHROMATOR                  : SI(111) CHANNEL CUT; SI(111)       
 200                                   CHANNEL CUT                        
 200  OPTICS                         : NULL; NULL                         
 200                                                                      
 200  DETECTOR TYPE                  : CCD; CCD                           
 200  DETECTOR MANUFACTURER          : ADSC QUANTUM 210; ADSC QUANTUM     
 200                                   210                                
 200  INTENSITY-INTEGRATION SOFTWARE : MOSFLM                             
 200  DATA SCALING SOFTWARE          : SCALEPACK                          
 200                                                                      
 200  NUMBER OF UNIQUE REFLECTIONS   : 19843                              
 200  RESOLUTION RANGE HIGH      (A) : 1.900                              
 200  RESOLUTION RANGE LOW       (A) : 39.940                             
 200  REJECTION CRITERIA  (SIGMA(I)) : 0.000                              
 200                                                                      
 200 OVERALL.                                                             
 200  COMPLETENESS FOR RANGE     (%) : 96.0                               
 200  DATA REDUNDANCY                : 7.200                              
 200  R MERGE                    (I) : 0.10300                            
 200  R SYM                      (I) : NULL                               
 200  <I/SIGMA(I)> FOR THE DATA SET  : 5.2000                             
 200                                                                      
 200 IN THE HIGHEST RESOLUTION SHELL.                                     
 200  HIGHEST RESOLUTION SHELL, RANGE HIGH (A) : 1.90                     
 200  HIGHEST RESOLUTION SHELL, RANGE LOW  (A) : 1.95                     
 200  COMPLETENESS FOR SHELL     (%) : 95.4                               
 200  DATA REDUNDANCY IN SHELL       : 6.40                               
 200  R MERGE FOR SHELL          (I) : 0.31500                            
 200  R SYM FOR SHELL            (I) : NULL                               
 200  <I/SIGMA(I)> FOR SHELL         : 2.300                              
 200                                                                      
 200 DIFFRACTION PROTOCOL: SINGLE WAVELENGTH; SINGLE WAVELENGTH           
 200 METHOD USED TO DETERMINE THE STRUCTURE: MOLECULAR REPLACEMENT        
 200 SOFTWARE USED: DIRECT                                                
 200 STARTING MODEL: PDB ENTRY 3DWZ                                       
 200                                                                      
 200 REMARK: NULL                                                         
 280                                                                      
 280 CRYSTAL                                                              
 280 SOLVENT CONTENT, VS   (%): 45.19                                     
 280 MATTHEWS COEFFICIENT, VM (ANGSTROMS**3/DA): 2.24                     
 280                                                                      
 280 CRYSTALLIZATION CONDITIONS: 0.1 M HEPES, 2 M NH4H2PO4, PH 7.5,       
 280  VAPOR DIFFUSION, SITTING DROP, TEMPERATURE 298K                     
 290                                                                      
 290 CRYSTALLOGRAPHIC SYMMETRY                                            
 290 SYMMETRY OPERATORS FOR SPACE GROUP: P 21 21 21                       
 290                                                                      
 290      SYMOP   SYMMETRY                                                
 290     NNNMMM   OPERATOR                                                
 290       1555   X,Y,Z                                                   
 290       2555   -X+1/2,-Y,Z+1/2                                         
 290       3555   -X,Y+1/2,-Z+1/2                                         
 290       4555   X+1/2,-Y+1/2,-Z                                         
 290                                                                      
 290     WHERE NNN -> OPERATOR NUMBER                                     
 290           MMM -> TRANSLATION VECTOR                                  
 290                                                                      
 290 CRYSTALLOGRAPHIC SYMMETRY TRANSFORMATIONS                            
 290 THE FOLLOWING TRANSFORMATIONS OPERATE ON THE ATOM/HETATM             
 290 RECORDS IN THIS ENTRY TO PRODUCE CRYSTALLOGRAPHICALLY                
 290 RELATED MOLECULES.                                                   
 290   SMTRY1   1  1.000000  0.000000  0.000000        0.00000            
 290   SMTRY2   1  0.000000  1.000000  0.000000        0.00000            
 290   SMTRY3   1  0.000000  0.000000  1.000000        0.00000            
 290   SMTRY1   2 -1.000000  0.000000  0.000000       24.67750            
 290   SMTRY2   2  0.000000 -1.000000  0.000000        0.00000            
 290   SMTRY3   2  0.000000  0.000000  1.000000       37.78450            
 290   SMTRY1   3 -1.000000  0.000000  0.000000        0.00000            
 290   SMTRY2   3  0.000000  1.000000  0.000000       33.95400            
 290   SMTRY3   3  0.000000  0.000000 -1.000000       37.78450            
 290   SMTRY1   4  1.000000  0.000000  0.000000       24.67750            
 290   SMTRY2   4  0.000000 -1.000000  0.000000       33.95400            
 290   SMTRY3   4  0.000000  0.000000 -1.000000        0.00000            
 290                                                                      
 290 REMARK: NULL                                                         
 300                                                                      
 300 BIOMOLECULE: 1                                                       
 300 SEE REMARK 350 FOR THE AUTHOR PROVIDED AND/OR PROGRAM                
 300 GENERATED ASSEMBLY INFORMATION FOR THE STRUCTURE IN                  
 300 THIS ENTRY. THE REMARK MAY ALSO PROVIDE INFORMATION ON               
 300 BURIED SURFACE AREA.                                                 
 350                                                                      
 350 COORDINATES FOR A COMPLETE MULTIMER REPRESENTING THE KNOWN           
 350 BIOLOGICALLY SIGNIFICANT OLIGOMERIZATION STATE OF THE                
 350 MOLECULE CAN BE GENERATED BY APPLYING BIOMT TRANSFORMATIONS          
 350 GIVEN BELOW.  BOTH NON-CRYSTALLOGRAPHIC AND                          
 350 CRYSTALLOGRAPHIC OPERATIONS ARE GIVEN.                               
 350                                                                      
 350 BIOMOLECULE: 1                                                       
 350 AUTHOR DETERMINED BIOLOGICAL UNIT: MONOMERIC                         
 350 SOFTWARE DETERMINED QUATERNARY STRUCTURE: MONOMERIC                  
 350 SOFTWARE USED: PISA                                                  
 350 APPLY THE FOLLOWING TO CHAINS: A                                     
 350   BIOMT1   1  1.000000  0.000000  0.000000        0.00000            
 350   BIOMT2   1  0.000000  1.000000  0.000000        0.00000            
 350   BIOMT3   1  0.000000  0.000000  1.000000        0.00000            
 500                                                                      
 500 GEOMETRY AND STEREOCHEMISTRY                                         
 500 SUBTOPIC: TORSION ANGLES                                             
 500                                                                      
 500 TORSION ANGLES OUTSIDE THE EXPECTED RAMACHANDRAN REGIONS:            
 500 (M=MODEL NUMBER; RES=RESIDUE NAME; C=CHAIN IDENTIFIER;               
 500 SSEQ=SEQUENCE NUMBER; I=INSERTION CODE).                             
 500                                                                      
 500 STANDARD TABLE:                                                      
 500 FORMAT:(10X,I3,1X,A3,1X,A1,I4,A1,4X,F7.2,3X,F7.2)                    
 500                                                                      
 500 EXPECTED VALUES: GJ KLEYWEGT AND TA JONES (1996). PHI/PSI-           
 500 CHOLOGY: RAMACHANDRAN REVISITED. STRUCTURE 4, 1395 - 1400            
 500                                                                      
 500  M RES CSSEQI        PSI       PHI                                   
 500    THR A  66     -164.89   -122.45                                   
 500    CYS A  83     -147.16     47.30                                   
 500    ARG A 236     -118.02   -116.57                                   
 500                                                                      
 500 REMARK: NULL                                                         
 800                                                                      
 800 SITE                                                                 
 800 SITE_IDENTIFIER: AC1                                                 
 800 EVIDENCE_CODE: SOFTWARE                                              
 800 SITE_DESCRIPTION: BINDING SITE FOR RESIDUE PO4 A 2                   
 800                                                                      
 800 SITE_IDENTIFIER: AC2                                                 
 800 EVIDENCE_CODE: SOFTWARE                                              
 800 SITE_DESCRIPTION: BINDING SITE FOR RESIDUE PO4 A 3                   
 800                                                                      
 800 SITE_IDENTIFIER: AC3                                                 
 800 EVIDENCE_CODE: SOFTWARE                                              
 800 SITE_DESCRIPTION: BINDING SITE FOR RESIDUE 7EP A 1                   

>  <DBREF>  (1) 
 3NDG A   43   307  UNP    P0C5C1   BLAC_MYCTU      43    307             

>  <SEQADV>  (1) 
 3NDG ALA A  182  UNP  P0C5C1    GLU   182 ENGINEERED MUTATION            

>  <SEQRES>  (1) 
   1 A  265  ASP LEU ALA ASP ARG PHE ALA GLU LEU GLU ARG ARG TYR          
   2 A  265  ASP ALA ARG LEU GLY VAL TYR VAL PRO ALA THR GLY THR          
   3 A  265  THR ALA ALA ILE GLU TYR ARG ALA ASP GLU ARG PHE ALA          
   4 A  265  PHE CYS SER THR PHE LYS ALA PRO LEU VAL ALA ALA VAL          
   5 A  265  LEU HIS GLN ASN PRO LEU THR HIS LEU ASP LYS LEU ILE          
   6 A  265  THR TYR THR SER ASP ASP ILE ARG SER ILE SER PRO VAL          
   7 A  265  ALA GLN GLN HIS VAL GLN THR GLY MET THR ILE GLY GLN          
   8 A  265  LEU CYS ASP ALA ALA ILE ARG TYR SER ASP GLY THR ALA          
   9 A  265  ALA ASN LEU LEU LEU ALA ASP LEU GLY GLY PRO GLY GLY          
  10 A  265  GLY THR ALA ALA PHE THR GLY TYR LEU ARG SER LEU GLY          
  11 A  265  ASP THR VAL SER ARG LEU ASP ALA GLU ALA PRO GLU LEU          
  12 A  265  ASN ARG ASP PRO PRO GLY ASP GLU ARG ASP THR THR THR          
  13 A  265  PRO HIS ALA ILE ALA LEU VAL LEU GLN GLN LEU VAL LEU          
  14 A  265  GLY ASN ALA LEU PRO PRO ASP LYS ARG ALA LEU LEU THR          
  15 A  265  ASP TRP MET ALA ARG ASN THR THR GLY ALA LYS ARG ILE          
  16 A  265  ARG ALA GLY PHE PRO ALA ASP TRP LYS VAL ILE ASP LYS          
  17 A  265  THR GLY THR GLY ASP TYR GLY ARG ALA ASN ASP ILE ALA          
  18 A  265  VAL VAL TRP SER PRO THR GLY VAL PRO TYR VAL VAL ALA          
  19 A  265  VAL MET SER ASP ARG ALA GLY GLY GLY TYR ASP ALA GLU          
  20 A  265  PRO ARG GLU ALA LEU LEU ALA GLU ALA ALA THR CYS VAL          
  21 A  265  ALA GLY VAL LEU ALA                                          

>  <HET>  (1) 
 PO4  A   2       5                                                       
 PO4  A   3       5                                                       
 7EP  A   1      26                                                       

>  <HETNAM>  (1) 
     PO4 PHOSPHATE ION                                                    
     7EP (2R,4S)-2-[(1R)-1-{[(2,6-DIMETHOXYPHENYL)                        
   2 7EP  CARBONYL]AMINO}-2-OXOETHYL]-5,5-DIMETHYL-1,3-                   
   3 7EP  THIAZOLIDINE-4-CARBOXYLIC ACID                                  

>  <HETSYN>  (1) 
     7EP METHICILLIN, BOUND FORM                                          

>  <FORMUL>  (1) 
   2  PO4    2(O4 P 3-)                                                   
   4  7EP    C17 H22 N2 O6 S                                              
   5  HOH   *215(H2 O)                                                    

>  <HELIX>  (1) 
   1   1 ASP A   43  TYR A   55  1                                  13    
   2   2 CYS A   83  THR A   85  5                                   3    
   3   3 PHE A   86  ASN A   98  1                                  13    
   4   4 PRO A   99  ASP A  104  5                                   6    
   5   5 THR A  110  ILE A  114  5                                   5    
   6   6 VAL A  120  VAL A  125  5                                   6    
   7   7 ILE A  131  TYR A  141  1                                  11    
   8   8 ASP A  143  GLY A  155  1                                  13    
   9   9 PRO A  157  GLY A  159  5                                   3    
  10  10 GLY A  160  LEU A  171  1                                  12    
  11  11 PRO A  183  ARG A  187  5                                   5    
  12  12 THR A  198  LEU A  211  1                                  14    
  13  13 PRO A  216  ARG A  229  1                                  14    
  14  14 ARG A  236  PHE A  241  1                                   6    
  15  15 ARG A  281  GLY A  285  5                                   5    
  16  16 ARG A  291  ALA A  307  1                                  17    

>  <SHEET>  (1) 
   1   A 5 ILE A  72  TYR A  74  0                                        
   2   A 5 ARG A  58  VAL A  63 -1  N  VAL A  61   O  TYR A  74           
   3   A 5 PRO A 272  ASP A 280 -1  O  MET A 278   N  GLY A  60           
   4   A 5 ALA A 259  TRP A 266 -1  N  VAL A 265   O  TYR A 273           
   5   A 5 LYS A 246  THR A 253 -1  N  GLY A 252   O  ASN A 260           
   1   B 2 PHE A  80  ALA A  81  0                                        
   2   B 2 THR A 196  THR A 197 -1  O  THR A 197   N  PHE A  80           
   1   C 2 LEU A 106  ILE A 107  0                                        
   2   C 2 MET A 129  THR A 130 -1  O  MET A 129   N  ILE A 107           

>  <LINK>  (1) 
       OG  SER A  84                 C   7EP A   1     1555   1555  1.33  

>  <CISPEP>  (1) 
   1 ALA A  182    PRO A  183          0         2.98                     

>  <SITE>  (1) 
   1 AC1  4 HOH A  29  ARG A  75  GLU A  78  GLU A 184                    
   1 AC2  7 7EP A   1  ARG A  79  ARG A 187  GLU A 193                    
   2 AC2  7 ASP A 255  TYR A 286  HOH A 478                               
   1 AC3 16 PO4 A   3  CYS A  83  SER A  84  ILE A 117                    
   2 AC3 16 SER A 142  PRO A 183  ASN A 186  LYS A 250                    
   3 AC3 16 THR A 251  GLY A 252  THR A 253  GLY A 254                    
   4 AC3 16 ASP A 255  HOH A 337  HOH A 471  HOH A 474                    

>  <ORIGX1>  (1) 
      1.000000  0.000000  0.000000        0.00000                         

>  <ORIGX2>  (1) 
      0.000000  1.000000  0.000000        0.00000                         

>  <ORIGX3>  (1) 
      0.000000  0.000000  1.000000        0.00000                         

>  <SCALE1>  (1) 
      0.020261  0.000000  0.000000        0.00000                         

>  <SCALE2>  (1) 
      0.000000  0.014726  0.000000        0.00000                         

>  <SCALE3>  (1) 
      0.000000  0.000000  0.013233        0.00000                         

>  <MASTER>  (1) 
      270    0    3   16    9    0    7    6 2235    1   37   21          

$$$$
