start_structures/Ligand_Substrate/Ligand_Complex_Stripped/3P7_5EUA.pdb
     RDKit          3D

 35 36  0  0  1  0  0  0  0  0999 V2000
   48.8002   51.8736   46.3374 N   0  0  0  0  0  0  0  0  0  0  0  0
   47.4484   51.3834   46.5430 C   0  0  2  0  0  0  0  0  0  0  0  0
   47.4039   49.8877   46.4403 C   0  0  0  0  0  0  0  0  0  0  0  0
   46.4736   49.2696   46.9369 O   0  0  0  0  0  0  0  0  0  0  0  0
   46.5156   52.0033   45.5090 C   0  0  0  0  0  0  0  0  0  0  0  0
   46.1583   53.3324   45.8734 O   0  0  0  0  0  0  0  0  0  0  0  0
   46.9086   54.4465   45.4814 C   0  0  0  0  0  0  0  0  0  0  0  0
   47.9132   54.3027   44.7308 O   0  0  0  0  0  0  0  0  0  0  0  0
   46.5555   55.8254   46.0019 C   0  0  1  0  0  0  0  0  0  0  0  0
   46.6693   56.7569   44.8761 N   0  0  0  0  0  0  0  0  0  0  0  0
   45.0908   55.8496   46.5129 C   0  0  2  0  0  0  0  0  0  0  0  0
   44.1847   55.5969   45.4632 O   0  0  0  0  0  0  0  0  0  0  0  0
   42.9220   55.4720   46.0673 C   0  0  0  0  0  0  0  0  0  0  0  0
   42.4345   56.8396   46.5519 C   0  0  1  0  0  0  0  0  0  0  0  0
   43.5588   57.5735   47.2455 C   0  0  0  0  0  0  0  0  0  0  0  0
   43.3010   58.8308   47.9648 C   0  0  0  0  0  0  0  0  0  0  0  0
   44.7762   57.1214   47.1725 N   0  0  0  0  0  0  0  0  0  0  0  0
   41.9368   57.6442   45.3636 C   0  0  0  0  0  0  0  0  0  0  0  0
   46.6867   58.1885   44.9709 C   0  0  0  0  0  0  0  0  0  0  0  0
   46.8925   58.7485   46.0824 O   0  0  0  0  0  0  0  0  0  0  0  0
   46.5452   59.0214   43.7224 C   0  0  1  0  0  0  0  0  0  0  0  0
   45.7250   58.3408   42.6646 C   0  0  0  0  0  0  0  0  0  0  0  0
   46.3186   58.0280   41.4367 C   0  0  0  0  0  0  0  0  0  0  0  0
   45.5784   57.3815   40.4422 C   0  0  0  0  0  0  0  0  0  0  0  0
   44.2415   57.0441   40.6727 C   0  0  0  0  0  0  0  0  0  0  0  0
   43.5080   56.4017   39.6849 O   0  0  0  0  0  0  0  0  0  0  0  0
   43.6431   57.3534   41.8973 C   0  0  0  0  0  0  0  0  0  0  0  0
   44.3820   58.0000   42.8916 C   0  0  0  0  0  0  0  0  0  0  0  0
   46.0253   60.4001   44.0007 C   0  0  0  0  0  0  0  0  0  0  0  0
   46.6723   61.4024   43.6013 O   0  0  0  0  0  0  0  0  0  0  0  0
   44.8257   60.5796   44.6802 O   0  0  0  0  0  0  0  0  0  0  0  0
   47.4770   56.2166   47.0109 O   0  0  0  0  0  0  0  0  0  0  0  0
   47.3783   55.3620   48.1255 C   0  0  0  0  0  0  0  0  0  0  0  0
   42.1282   59.2773   48.0704 O   0  0  0  0  0  0  0  0  0  0  0  0
   44.3532   59.5344   48.5384 O   0  0  0  0  0  0  0  0  0  0  0  0
  2  1  1  6
  3  2  1  0
  4  3  2  0
  5  2  1  0
  5  6  1  0
  6  7  1  0
  7  8  2  0
  9  7  1  0
  9 10  1  6
  9 32  1  0
 10 19  1  0
 11  9  1  0
 11 12  1  1
 11 17  1  0
 12 13  1  0
 13 14  1  0
 14 15  1  0
 14 18  1  1
 15 16  1  0
 15 17  2  0
 16 34  2  0
 16 35  1  0
 19 20  2  0
 21 19  1  1
 21 22  1  0
 21 29  1  0
 22 23  2  0
 22 28  1  0
 23 24  1  0
 24 25  2  0
 25 26  1  0
 25 27  1  0
 27 28  2  0
 29 30  2  0
 29 31  1  0
 32 33  1  0
M  END
>  <HEADER>  (1) 
    HYDROLASE/ANTIBIOTIC                    18-NOV-15   5EUA              

>  <TITLE>  (1) 
    CRYSTAL STRUCTURE OF EXTENDED-SPECTRUM BETA-LACTAMASE BEL-1 IN COMPLEX
   2 WITH MOXALACTAM                                                      

>  <COMPND>  (1) 
    MOL_ID: 1;                                                            
   2 MOLECULE: BETA-LACTAMASE;                                            
   3 CHAIN: A, B;                                                         
   4 EC: 3.5.2.6;                                                         
   5 ENGINEERED: YES                                                      

>  <SOURCE>  (1) 
    MOL_ID: 1;                                                            
   2 ORGANISM_SCIENTIFIC: PSEUDOMONAS AERUGINOSA;                         
   3 ORGANISM_TAXID: 287;                                                 
   4 GENE: BLA(BEL1), BLABEL-1;                                           
   5 EXPRESSION_SYSTEM: ESCHERICHIA COLI BL21(DE3);                       
   6 EXPRESSION_SYSTEM_TAXID: 469008;                                     
   7 EXPRESSION_SYSTEM_VECTOR_TYPE: PLASMID;                              
   8 EXPRESSION_SYSTEM_PLASMID: PET9A                                     

>  <KEYWDS>  (1) 
    HYDROLASE-ANTIBIOTIC COMPLEX, EXTENDED-SPECTRUM BETA-LACTAMASE,       
   2 PSEUDOMONAS AERUGINOSA, OXACEPHEM ANTIBIOTIC                         

>  <EXPDTA>  (1) 
    X-RAY DIFFRACTION                                                     

>  <AUTHOR>  (1) 
    C.POZZI,F.DE LUCA,M.BENVENUTI,J.D.DOCQUIER,S.MANGANI                  

>  <REVDAT>  (1) 
   4   31-JAN-18 5EUA    1       REMARK                                   
   3   07-DEC-16 5EUA    1       JRNL                                     
   2   05-OCT-16 5EUA    1       JRNL                                     
   1   21-SEP-16 5EUA    0                                                

>  <SPRSDE>  (1) 
     21-SEP-16 5EUA      4MXH                                             

>  <JRNL>  (1) 
      AUTH   C.POZZI,F.DE LUCA,M.BENVENUTI,L.POIREL,P.NORDMANN,           
      AUTH 2 G.M.ROSSOLINI,S.MANGANI,J.D.DOCQUIER                         
      TITL   CRYSTAL STRUCTURE OF THE PSEUDOMONAS AERUGINOSA BEL-1        
      TITL 2 EXTENDED-SPECTRUM BETA-LACTAMASE AND ITS COMPLEXES WITH      
      TITL 3 MOXALACTAM AND IMIPENEM.                                     
      REF    ANTIMICROB.AGENTS CHEMOTHER.  V.  60  7189 2016              
      REFN                   ESSN 1098-6596                               
      PMID   27671060                                                     
      DOI    10.1128/AAC.00936-16                                         

>  <REMARK>  (1) 
   2                                                                      
   2 RESOLUTION.    1.85 ANGSTROMS.                                       
   3                                                                      
   3 REFINEMENT.                                                          
   3   PROGRAM     : REFMAC 5.8.0073                                      
   3   AUTHORS     : MURSHUDOV,VAGIN,DODSON                               
   3                                                                      
   3    REFINEMENT TARGET : MAXIMUM LIKELIHOOD                            
   3                                                                      
   3  DATA USED IN REFINEMENT.                                            
   3   RESOLUTION RANGE HIGH (ANGSTROMS) : 1.85                           
   3   RESOLUTION RANGE LOW  (ANGSTROMS) : 33.58                          
   3   DATA CUTOFF            (SIGMA(F)) : NULL                           
   3   COMPLETENESS FOR RANGE        (%) : 99.6                           
   3   NUMBER OF REFLECTIONS             : 40684                          
   3                                                                      
   3  FIT TO DATA USED IN REFINEMENT.                                     
   3   CROSS-VALIDATION METHOD          : THROUGHOUT                      
   3   FREE R VALUE TEST SET SELECTION  : RANDOM                          
   3   R VALUE     (WORKING + TEST SET) : 0.168                           
   3   R VALUE            (WORKING SET) : 0.166                           
   3   FREE R VALUE                     : 0.215                           
   3   FREE R VALUE TEST SET SIZE   (%) : 5.000                           
   3   FREE R VALUE TEST SET COUNT      : 2159                            
   3                                                                      
   3  FIT IN THE HIGHEST RESOLUTION BIN.                                  
   3   TOTAL NUMBER OF BINS USED           : NULL                         
   3   BIN RESOLUTION RANGE HIGH       (A) : 1.85                         
   3   BIN RESOLUTION RANGE LOW        (A) : 1.90                         
   3   REFLECTION IN BIN     (WORKING SET) : 2957                         
   3   BIN COMPLETENESS (WORKING+TEST) (%) : 99.94                        
   3   BIN R VALUE           (WORKING SET) : 0.2290                       
   3   BIN FREE R VALUE SET COUNT          : 157                          
   3   BIN FREE R VALUE                    : 0.2670                       
   3                                                                      
   3  NUMBER OF NON-HYDROGEN ATOMS USED IN REFINEMENT.                    
   3   PROTEIN ATOMS            : 3888                                    
   3   NUCLEIC ACID ATOMS       : 0                                       
   3   HETEROGEN ATOMS          : 53                                      
   3   SOLVENT ATOMS            : 305                                     
   3                                                                      
   3  B VALUES.                                                           
   3   FROM WILSON PLOT           (A**2) : 19.68                          
   3   MEAN B VALUE      (OVERALL, A**2) : 27.59                          
   3   OVERALL ANISOTROPIC B VALUE.                                       
   3    B11 (A**2) : 0.00000                                              
   3    B22 (A**2) : 0.00000                                              
   3    B33 (A**2) : 0.00000                                              
   3    B12 (A**2) : 0.00000                                              
   3    B13 (A**2) : 0.00000                                              
   3    B23 (A**2) : 0.00000                                              
   3                                                                      
   3  ESTIMATED OVERALL COORDINATE ERROR.                                 
   3   ESU BASED ON R VALUE                            (A): 0.135         
   3   ESU BASED ON FREE R VALUE                       (A): 0.132         
   3   ESU BASED ON MAXIMUM LIKELIHOOD                 (A): 0.094         
   3   ESU FOR B VALUES BASED ON MAXIMUM LIKELIHOOD (A**2): 3.153         
   3                                                                      
   3 CORRELATION COEFFICIENTS.                                            
   3   CORRELATION COEFFICIENT FO-FC      : 0.967                         
   3   CORRELATION COEFFICIENT FO-FC FREE : 0.951                         
   3                                                                      
   3  RMS DEVIATIONS FROM IDEAL VALUES        COUNT    RMS    WEIGHT      
   3   BOND LENGTHS REFINED ATOMS        (A):  4112 ; 0.015 ; 0.020       
   3   BOND LENGTHS OTHERS               (A):  3871 ; 0.001 ; 0.020       
   3   BOND ANGLES REFINED ATOMS   (DEGREES):  5595 ; 1.697 ; 1.993       
   3   BOND ANGLES OTHERS          (DEGREES):  8878 ; 0.877 ; 3.002       
   3   TORSION ANGLES, PERIOD 1    (DEGREES):   526 ; 6.111 ; 5.000       
   3   TORSION ANGLES, PERIOD 2    (DEGREES):   173 ;37.066 ;23.815       
   3   TORSION ANGLES, PERIOD 3    (DEGREES):   672 ;12.956 ;15.000       
   3   TORSION ANGLES, PERIOD 4    (DEGREES):    32 ;16.674 ;15.000       
   3   CHIRAL-CENTER RESTRAINTS       (A**3):   643 ; 0.100 ; 0.200       
   3   GENERAL PLANES REFINED ATOMS      (A):  4696 ; 0.008 ; 0.021       
   3   GENERAL PLANES OTHERS             (A):   927 ; 0.001 ; 0.020       
   3   NON-BONDED CONTACTS REFINED ATOMS (A):  NULL ;  NULL ;  NULL       
   3   NON-BONDED CONTACTS OTHERS        (A):  NULL ;  NULL ;  NULL       
   3   NON-BONDED TORSION REFINED ATOMS  (A):  NULL ;  NULL ;  NULL       
   3   NON-BONDED TORSION OTHERS         (A):  NULL ;  NULL ;  NULL       
   3   H-BOND (X...Y) REFINED ATOMS      (A):  NULL ;  NULL ;  NULL       
   3   H-BOND (X...Y) OTHERS             (A):  NULL ;  NULL ;  NULL       
   3   POTENTIAL METAL-ION REFINED ATOMS (A):  NULL ;  NULL ;  NULL       
   3   POTENTIAL METAL-ION OTHERS        (A):  NULL ;  NULL ;  NULL       
   3   SYMMETRY VDW REFINED ATOMS        (A):  NULL ;  NULL ;  NULL       
   3   SYMMETRY VDW OTHERS               (A):  NULL ;  NULL ;  NULL       
   3   SYMMETRY H-BOND REFINED ATOMS     (A):  NULL ;  NULL ;  NULL       
   3   SYMMETRY H-BOND OTHERS            (A):  NULL ;  NULL ;  NULL       
   3   SYMMETRY METAL-ION REFINED ATOMS  (A):  NULL ;  NULL ;  NULL       
   3   SYMMETRY METAL-ION OTHERS         (A):  NULL ;  NULL ;  NULL       
   3                                                                      
   3  ISOTROPIC THERMAL FACTOR RESTRAINTS.     COUNT   RMS    WEIGHT      
   3   MAIN-CHAIN BOND REFINED ATOMS  (A**2):  2068 ; 2.156 ; 2.597       
   3   MAIN-CHAIN BOND OTHER ATOMS    (A**2):  2067 ; 2.152 ; 2.596       
   3   MAIN-CHAIN ANGLE REFINED ATOMS (A**2):  2585 ; 3.024 ; 3.875       
   3   MAIN-CHAIN ANGLE OTHER ATOMS   (A**2):  2586 ; 3.025 ; 3.876       
   3   SIDE-CHAIN BOND REFINED ATOMS  (A**2):  2044 ; 2.616 ; 2.921       
   3   SIDE-CHAIN BOND OTHER ATOMS    (A**2):  2041 ; 2.615 ; 2.918       
   3   SIDE-CHAIN ANGLE REFINED ATOMS (A**2):  NULL ;  NULL ;  NULL       
   3   SIDE-CHAIN ANGLE OTHER ATOMS   (A**2):  3002 ; 3.930 ; 4.275       
   3   LONG RANGE B REFINED ATOMS     (A**2):  4828 ; 5.666 ;21.890       
   3   LONG RANGE B OTHER ATOMS       (A**2):  4820 ; 5.668 ;21.848       
   3                                                                      
   3 ANISOTROPIC THERMAL FACTOR RESTRAINTS.    COUNT   RMS   WEIGHT       
   3   RIGID-BOND RESTRAINTS          (A**2):  NULL ;  NULL ;  NULL       
   3   SPHERICITY; FREE ATOMS         (A**2):  NULL ;  NULL ;  NULL       
   3   SPHERICITY; BONDED ATOMS       (A**2):  NULL ;  NULL ;  NULL       
   3                                                                      
   3  NCS RESTRAINTS STATISTICS                                           
   3   NUMBER OF DIFFERENT NCS GROUPS : NULL                              
   3                                                                      
   3  TLS DETAILS                                                         
   3   NUMBER OF TLS GROUPS  : NULL                                       
   3                                                                      
   3  BULK SOLVENT MODELLING.                                             
   3   METHOD USED : MASK                                                 
   3   PARAMETERS FOR MASK CALCULATION                                    
   3   VDW PROBE RADIUS   : 1.20                                          
   3   ION PROBE RADIUS   : 0.80                                          
   3   SHRINKAGE RADIUS   : 0.80                                          
   3                                                                      
   3  OTHER REFINEMENT REMARKS: HYDROGENS HAVE BEEN ADDED IN THE RIDING   
   3  POSITIONS. MOXALACTAM IN B SUBUNIT WAS ONLY PARTIALLY MODELED       
   3  DUE TO POSITIONAL DISORDER                                          
   4                                                                      
   4 5EUA COMPLIES WITH FORMAT V. 3.30, 13-JUL-11                         
 100                                                                      
 100 THIS ENTRY HAS BEEN PROCESSED BY PDBE ON 22-DEC-15.                  
 100 THE DEPOSITION ID IS D_1000215453.                                   
 200                                                                      
 200 EXPERIMENTAL DETAILS                                                 
 200  EXPERIMENT TYPE                : X-RAY DIFFRACTION                  
 200  DATE OF DATA COLLECTION        : 05-JUL-13                          
 200  TEMPERATURE           (KELVIN) : 100                                
 200  PH                             : 5.6 - 6.5                          
 200  NUMBER OF CRYSTALS USED        : 1                                  
 200                                                                      
 200  SYNCHROTRON              (Y/N) : Y                                  
 200  RADIATION SOURCE               : DIAMOND                            
 200  BEAMLINE                       : I04-1                              
 200  X-RAY GENERATOR MODEL          : NULL                               
 200  MONOCHROMATIC OR LAUE    (M/L) : M                                  
 200  WAVELENGTH OR RANGE        (A) : 0.920                              
 200  MONOCHROMATOR                  : SI(111) DOUBLE CRYSTAL             
 200  OPTICS                         : NULL                               
 200                                                                      
 200  DETECTOR TYPE                  : PIXEL                              
 200  DETECTOR MANUFACTURER          : DECTRIS PILATUS 2M                 
 200  INTENSITY-INTEGRATION SOFTWARE : IMOSFLM                            
 200  DATA SCALING SOFTWARE          : SCALA                              
 200                                                                      
 200  NUMBER OF UNIQUE REFLECTIONS   : 42901                              
 200  RESOLUTION RANGE HIGH      (A) : 1.850                              
 200  RESOLUTION RANGE LOW       (A) : 33.580                             
 200  REJECTION CRITERIA  (SIGMA(I)) : 2.000                              
 200                                                                      
 200 OVERALL.                                                             
 200  COMPLETENESS FOR RANGE     (%) : 99.7                               
 200  DATA REDUNDANCY                : 6.200                              
 200  R MERGE                    (I) : 0.08000                            
 200  R SYM                      (I) : NULL                               
 200  <I/SIGMA(I)> FOR THE DATA SET  : 12.6000                            
 200                                                                      
 200 IN THE HIGHEST RESOLUTION SHELL.                                     
 200  HIGHEST RESOLUTION SHELL, RANGE HIGH (A) : 1.85                     
 200  HIGHEST RESOLUTION SHELL, RANGE LOW  (A) : 1.95                     
 200  COMPLETENESS FOR SHELL     (%) : 100.0                              
 200  DATA REDUNDANCY IN SHELL       : 6.50                               
 200  R MERGE FOR SHELL          (I) : 0.42700                            
 200  R SYM FOR SHELL            (I) : NULL                               
 200  <I/SIGMA(I)> FOR SHELL         : 3.800                              
 200                                                                      
 200 DIFFRACTION PROTOCOL: SINGLE WAVELENGTH                              
 200 METHOD USED TO DETERMINE THE STRUCTURE: MOLECULAR REPLACEMENT        
 200 SOFTWARE USED: MOLREP                                                
 200 STARTING MODEL: 5EOE                                                 
 200                                                                      
 200 REMARK: NULL                                                         
 280                                                                      
 280 CRYSTAL                                                              
 280 SOLVENT CONTENT, VS   (%): 44.21                                     
 280 MATTHEWS COEFFICIENT, VM (ANGSTROMS**3/DA): 2.20                     
 280                                                                      
 280 CRYSTALLIZATION CONDITIONS: 20% PEG4600, 20% MPD, 0.1M SODIUM        
 280  CITRATE PH 5.6, VAPOR DIFFUSION, SITTING DROP, TEMPERATURE 298.0K   
 290                                                                      
 290 CRYSTALLOGRAPHIC SYMMETRY                                            
 290 SYMMETRY OPERATORS FOR SPACE GROUP: P 21 21 21                       
 290                                                                      
 290      SYMOP   SYMMETRY                                                
 290     NNNMMM   OPERATOR                                                
 290       1555   X,Y,Z                                                   
 290       2555   -X+1/2,-Y,Z+1/2                                         
 290       3555   -X,Y+1/2,-Z+1/2                                         
 290       4555   X+1/2,-Y+1/2,-Z                                         
 290                                                                      
 290     WHERE NNN -> OPERATOR NUMBER                                     
 290           MMM -> TRANSLATION VECTOR                                  
 290                                                                      
 290 CRYSTALLOGRAPHIC SYMMETRY TRANSFORMATIONS                            
 290 THE FOLLOWING TRANSFORMATIONS OPERATE ON THE ATOM/HETATM             
 290 RECORDS IN THIS ENTRY TO PRODUCE CRYSTALLOGRAPHICALLY                
 290 RELATED MOLECULES.                                                   
 290   SMTRY1   1  1.000000  0.000000  0.000000        0.00000            
 290   SMTRY2   1  0.000000  1.000000  0.000000        0.00000            
 290   SMTRY3   1  0.000000  0.000000  1.000000        0.00000            
 290   SMTRY1   2 -1.000000  0.000000  0.000000       35.26500            
 290   SMTRY2   2  0.000000 -1.000000  0.000000        0.00000            
 290   SMTRY3   2  0.000000  0.000000  1.000000       43.32000            
 290   SMTRY1   3 -1.000000  0.000000  0.000000        0.00000            
 290   SMTRY2   3  0.000000  1.000000  0.000000       40.45500            
 290   SMTRY3   3  0.000000  0.000000 -1.000000       43.32000            
 290   SMTRY1   4  1.000000  0.000000  0.000000       35.26500            
 290   SMTRY2   4  0.000000 -1.000000  0.000000       40.45500            
 290   SMTRY3   4  0.000000  0.000000 -1.000000        0.00000            
 290                                                                      
 290 REMARK: NULL                                                         
 300                                                                      
 300 BIOMOLECULE: 1, 2                                                    
 300 SEE REMARK 350 FOR THE AUTHOR PROVIDED AND/OR PROGRAM                
 300 GENERATED ASSEMBLY INFORMATION FOR THE STRUCTURE IN                  
 300 THIS ENTRY. THE REMARK MAY ALSO PROVIDE INFORMATION ON               
 300 BURIED SURFACE AREA.                                                 
 350                                                                      
 350 COORDINATES FOR A COMPLETE MULTIMER REPRESENTING THE KNOWN           
 350 BIOLOGICALLY SIGNIFICANT OLIGOMERIZATION STATE OF THE                
 350 MOLECULE CAN BE GENERATED BY APPLYING BIOMT TRANSFORMATIONS          
 350 GIVEN BELOW.  BOTH NON-CRYSTALLOGRAPHIC AND                          
 350 CRYSTALLOGRAPHIC OPERATIONS ARE GIVEN.                               
 350                                                                      
 350 BIOMOLECULE: 1                                                       
 350 AUTHOR DETERMINED BIOLOGICAL UNIT: MONOMERIC                         
 350 SOFTWARE DETERMINED QUATERNARY STRUCTURE: MONOMERIC                  
 350 SOFTWARE USED: PISA                                                  
 350 APPLY THE FOLLOWING TO CHAINS: A                                     
 350   BIOMT1   1  1.000000  0.000000  0.000000        0.00000            
 350   BIOMT2   1  0.000000  1.000000  0.000000        0.00000            
 350   BIOMT3   1  0.000000  0.000000  1.000000        0.00000            
 350                                                                      
 350 BIOMOLECULE: 2                                                       
 350 AUTHOR DETERMINED BIOLOGICAL UNIT: MONOMERIC                         
 350 SOFTWARE DETERMINED QUATERNARY STRUCTURE: MONOMERIC                  
 350 SOFTWARE USED: PISA                                                  
 350 APPLY THE FOLLOWING TO CHAINS: B                                     
 350   BIOMT1   1  1.000000  0.000000  0.000000        0.00000            
 350   BIOMT2   1  0.000000  1.000000  0.000000        0.00000            
 350   BIOMT3   1  0.000000  0.000000  1.000000        0.00000            
 465                                                                      
 465 MISSING RESIDUES                                                     
 465 THE FOLLOWING RESIDUES WERE NOT LOCATED IN THE                       
 465 EXPERIMENT. (M=MODEL NUMBER; RES=RESIDUE NAME; C=CHAIN               
 465 IDENTIFIER; SSSEQ=SEQUENCE NUMBER; I=INSERTION CODE.)                
 465                                                                      
 465   M RES C SSSEQI                                                     
 465     GLN A    19                                                      
 465     ALA A    20                                                      
 465     GLN B    19                                                      
 465     ALA B    20                                                      
 465     GLU B   159                                                      
 465     PRO B   160                                                      
 465     THR B   161                                                      
 465     LEU B   162                                                      
 465     ASN B   163                                                      
 465     THR B   164                                                      
 465     ASN B   165                                                      
 465     THR B   166                                                      
 465     PRO B   167                                                      
 465     GLY B   168                                                      
 465     ASP B   169                                                      
 465     VAL B   282                                                      
 465     HIS B   283                                                      
 470                                                                      
 470 MISSING ATOM                                                         
 470 THE FOLLOWING RESIDUES HAVE MISSING ATOMS (M=MODEL NUMBER;           
 470 RES=RESIDUE NAME; C=CHAIN IDENTIFIER; SSEQ=SEQUENCE NUMBER;          
 470 I=INSERTION CODE):                                                   
 470   M RES CSSEQI  ATOMS                                                
 470     HIS A  32    CG   ND1  CD2  CE1  NE2                             
 470     LYS A 143    CD   CE   NZ                                        
 470     LYS A 151    CD   CE   NZ                                        
 470     LYS A 195    CE   NZ                                             
 470     LYS A 212    CE   NZ                                             
 470     GLN A 262    CD   OE1  NE2                                       
 470     VAL A 282    CG1  CG2                                            
 470     GLN B  34    CG   CD   OE1  NE2                                  
 470     ARG B  57    NH1  NH2                                            
 470     GLU B  96    CD   OE1  OE2                                       
 470     LYS B 133    CD   CE   NZ                                        
 470     LYS B 143    CE   NZ                                             
 470     LYS B 151    CD   CE   NZ                                        
 470     ILE B 158    CG1  CG2  CD1                                       
 470     LYS B 195    CD   CE   NZ                                        
 470     LYS B 212    CD   CE   NZ                                        
 470     LYS B 248    CE   NZ                                             
 470     GLU B 264    CD   OE1  OE2                                       
 500                                                                      
 500 GEOMETRY AND STEREOCHEMISTRY                                         
 500 SUBTOPIC: CLOSE CONTACTS IN SAME ASYMMETRIC UNIT                     
 500                                                                      
 500 THE FOLLOWING ATOMS ARE IN CLOSE CONTACT.                            
 500                                                                      
 500  ATM1  RES C  SSEQI   ATM2  RES C  SSEQI           DISTANCE          
 500   OG   SER B    62     C1   3P7 B   301              1.62            
 500                                                                      
 500 REMARK: NULL                                                         
 500                                                                      
 500 GEOMETRY AND STEREOCHEMISTRY                                         
 500 SUBTOPIC: COVALENT BOND ANGLES                                       
 500                                                                      
 500 THE STEREOCHEMICAL PARAMETERS OF THE FOLLOWING RESIDUES              
 500 HAVE VALUES WHICH DEVIATE FROM EXPECTED VALUES BY MORE               
 500 THAN 6*RMSD (M=MODEL NUMBER; RES=RESIDUE NAME; C=CHAIN               
 500 IDENTIFIER; SSEQ=SEQUENCE NUMBER; I=INSERTION CODE).                 
 500                                                                      
 500 STANDARD TABLE:                                                      
 500 FORMAT: (10X,I3,1X,A3,1X,A1,I4,A1,3(1X,A4,2X),12X,F5.1)              
 500                                                                      
 500 EXPECTED VALUES PROTEIN: ENGH AND HUBER, 1999                        
 500 EXPECTED VALUES NUCLEIC ACID: CLOWNEY ET AL 1996                     
 500                                                                      
 500  M RES CSSEQI ATM1   ATM2   ATM3                                     
 500    ARG A 236   NE  -  CZ  -  NH1 ANGL. DEV. =   3.7 DEGREES          
 500                                                                      
 500 REMARK: NULL                                                         
 500                                                                      
 500 GEOMETRY AND STEREOCHEMISTRY                                         
 500 SUBTOPIC: TORSION ANGLES                                             
 500                                                                      
 500 TORSION ANGLES OUTSIDE THE EXPECTED RAMACHANDRAN REGIONS:            
 500 (M=MODEL NUMBER; RES=RESIDUE NAME; C=CHAIN IDENTIFIER;               
 500 SSEQ=SEQUENCE NUMBER; I=INSERTION CODE).                             
 500                                                                      
 500 STANDARD TABLE:                                                      
 500 FORMAT:(10X,I3,1X,A3,1X,A1,I4,A1,4X,F7.2,3X,F7.2)                    
 500                                                                      
 500 EXPECTED VALUES: GJ KLEYWEGT AND TA JONES (1996). PHI/PSI-           
 500 CHOLOGY: RAMACHANDRAN REVISITED. STRUCTURE 4, 1395 - 1400            
 500                                                                      
 500  M RES CSSEQI        PSI       PHI                                   
 500    CYS A  61     -135.05     49.68                                   
 500    THR A 213     -128.99    -99.28                                   
 500    CYS B  61      -66.48   -108.09                                   
 500    ALA B  98       58.34   -156.98                                   
 500    ASP B 156      -34.77   -130.08                                   
 500    THR B 213     -129.65   -106.82                                   
 500                                                                      
 500 REMARK: NULL                                                         
 610                                                                      
 610 MISSING HETEROATOM                                                   
 610 THE FOLLOWING RESIDUES HAVE MISSING ATOMS (M=MODEL NUMBER;           
 610 RES=RESIDUE NAME; C=CHAIN IDENTIFIER; SSEQ=SEQUENCE NUMBER;          
 610 I=INSERTION CODE):                                                   
 610   M RES C SSEQI                                                      
 610     3P7 B  301                                                       
 620                                                                      
 620 METAL COORDINATION                                                   
 620 (M=MODEL NUMBER; RES=RESIDUE NAME; C=CHAIN IDENTIFIER;               
 620 SSEQ=SEQUENCE NUMBER; I=INSERTION CODE):                             
 620                                                                      
 620 COORDINATION ANGLES FOR:  M RES CSSEQI METAL                         
 620                              NA A 302  NA                            
 620 N RES CSSEQI ATOM                                                    
 620 1 ARG A 215   O                                                      
 620 2 LEU A 218   O    91.6                                              
 620 3 ASP A 220   OD1 158.9  99.1                                        
 620 4 HOH A 467   O    93.8  85.2 105.2                                  
 620 5 HOH A 414   O    99.9  86.6  62.9 164.2                            
 620 6 HOH A 538   O    90.8 169.8  81.9  84.8 102.7                      
 620 N                    1     2     3     4     5                       
 620                                                                      
 620 COORDINATION ANGLES FOR:  M RES CSSEQI METAL                         
 620                              NA B 302  NA                            
 620 N RES CSSEQI ATOM                                                    
 620 1 ARG B 215   O                                                      
 620 2 LEU B 218   O    94.7                                              
 620 3 ASP B 220   OD1 155.4 105.4                                        
 620 4 HOH B 477   O    92.8  88.2 101.7                                  
 620 5 HOH B 505   O    82.9 176.7  76.4  94.1                            
 620 6 HOH B 501   O    96.5  77.7  74.7 163.8 100.3                      
 620 N                    1     2     3     4     5                       
 800                                                                      
 800 SITE                                                                 
 800 SITE_IDENTIFIER: AC1                                                 
 800 EVIDENCE_CODE: SOFTWARE                                              
 800 SITE_DESCRIPTION: binding site for residue 3P7 A 301                 
 800                                                                      
 800 SITE_IDENTIFIER: AC2                                                 
 800 EVIDENCE_CODE: SOFTWARE                                              
 800 SITE_DESCRIPTION: binding site for residue NA A 302                  
 800                                                                      
 800 SITE_IDENTIFIER: AC3                                                 
 800 EVIDENCE_CODE: SOFTWARE                                              
 800 SITE_DESCRIPTION: binding site for residue 3P7 B 301                 
 800                                                                      
 800 SITE_IDENTIFIER: AC4                                                 
 800 EVIDENCE_CODE: SOFTWARE                                              
 800 SITE_DESCRIPTION: binding site for residue NA B 302                  
 900                                                                      
 900 RELATED ENTRIES                                                      
 900 RELATED ID: 5EOE   RELATED DB: PDB                                   
 900 CRYSTAL STRUCTURE OF EXTENDED-SPECTRUM BETA-LACTAMASE BEL-1          
 900 (ORTHORHOMBIC FORM)                                                  
 900 RELATED ID: 5EOO   RELATED DB: PDB                                   
 900 CRYSTAL STRUCTURE OF EXTENDED-SPECTRUM BETA-LACTAMASE BEL-1          
 900 (MONOCLINIC FORM)                                                    
 900 RELATED ID: 5EPH   RELATED DB: PDB                                   
 900 CRYSTAL STRUCTURE OF EXTENDED-SPECTRUM BETA-LACTAMASE BEL-1 IN       
 900 COMPLEX WITH IMIPENEM                                                

>  <DBREF>  (1) 
 5EUA A   19   283  UNP    Q3SAW3   Q3SAW3_PSEAI    19    283             
 5EUA B   19   283  UNP    Q3SAW3   Q3SAW3_PSEAI    19    283             

>  <SEQRES>  (1) 
   1 A  265  GLN ALA ASP PHE GLU HIS ALA ILE SER ASP LEU GLU ALA          
   2 A  265  HIS ASN GLN ALA LYS ILE GLY VAL ALA LEU VAL SER GLU          
   3 A  265  ASN GLY ASN LEU ILE GLN GLY TYR ARG ALA ASN GLU ARG          
   4 A  265  PHE ALA MET CYS SER THR PHE LYS LEU PRO LEU ALA ALA          
   5 A  265  LEU VAL LEU SER ARG ILE ASP ALA GLY GLU GLU ASN PRO          
   6 A  265  GLU ARG LYS LEU HIS TYR ASP SER ALA PHE LEU GLU GLU          
   7 A  265  TYR ALA PRO ALA ALA LYS ARG TYR VAL ALA THR GLY TYR          
   8 A  265  MET THR VAL THR GLU ALA ILE GLN SER ALA LEU GLN LEU          
   9 A  265  SER ASP ASN ALA ALA ALA ASN LEU LEU LEU LYS GLU VAL          
  10 A  265  GLY GLY PRO PRO LEU LEU THR LYS TYR PHE ARG SER LEU          
  11 A  265  GLY ASP LYS VAL SER ARG LEU ASP ARG ILE GLU PRO THR          
  12 A  265  LEU ASN THR ASN THR PRO GLY ASP GLU ARG ASP THR THR          
  13 A  265  THR PRO MET SER MET ALA GLN THR VAL SER LYS LEU ILE          
  14 A  265  PHE GLY ASP THR LEU THR TYR LYS SER LYS GLY GLN LEU          
  15 A  265  ARG ARG LEU LEU ILE GLY ASN GLN THR GLY ASP LYS THR          
  16 A  265  ILE ARG ALA GLY LEU PRO ASP SER TRP VAL THR GLY ASP          
  17 A  265  LYS THR GLY SER CYS ALA ASN GLY GLY ARG ASN ASP VAL          
  18 A  265  ALA PHE PHE ILE THR THR ALA GLY LYS LYS TYR VAL LEU          
  19 A  265  SER VAL TYR THR ASN ALA PRO GLU LEU GLN GLY GLU GLU          
  20 A  265  ARG ALA LEU LEU ILE ALA SER VAL ALA LYS LEU ALA ARG          
  21 A  265  GLN TYR VAL VAL HIS                                          
   1 B  265  GLN ALA ASP PHE GLU HIS ALA ILE SER ASP LEU GLU ALA          
   2 B  265  HIS ASN GLN ALA LYS ILE GLY VAL ALA LEU VAL SER GLU          
   3 B  265  ASN GLY ASN LEU ILE GLN GLY TYR ARG ALA ASN GLU ARG          
   4 B  265  PHE ALA MET CYS SER THR PHE LYS LEU PRO LEU ALA ALA          
   5 B  265  LEU VAL LEU SER ARG ILE ASP ALA GLY GLU GLU ASN PRO          
   6 B  265  GLU ARG LYS LEU HIS TYR ASP SER ALA PHE LEU GLU GLU          
   7 B  265  TYR ALA PRO ALA ALA LYS ARG TYR VAL ALA THR GLY TYR          
   8 B  265  MET THR VAL THR GLU ALA ILE GLN SER ALA LEU GLN LEU          
   9 B  265  SER ASP ASN ALA ALA ALA ASN LEU LEU LEU LYS GLU VAL          
  10 B  265  GLY GLY PRO PRO LEU LEU THR LYS TYR PHE ARG SER LEU          
  11 B  265  GLY ASP LYS VAL SER ARG LEU ASP ARG ILE GLU PRO THR          
  12 B  265  LEU ASN THR ASN THR PRO GLY ASP GLU ARG ASP THR THR          
  13 B  265  THR PRO MET SER MET ALA GLN THR VAL SER LYS LEU ILE          
  14 B  265  PHE GLY ASP THR LEU THR TYR LYS SER LYS GLY GLN LEU          
  15 B  265  ARG ARG LEU LEU ILE GLY ASN GLN THR GLY ASP LYS THR          
  16 B  265  ILE ARG ALA GLY LEU PRO ASP SER TRP VAL THR GLY ASP          
  17 B  265  LYS THR GLY SER CYS ALA ASN GLY GLY ARG ASN ASP VAL          
  18 B  265  ALA PHE PHE ILE THR THR ALA GLY LYS LYS TYR VAL LEU          
  19 B  265  SER VAL TYR THR ASN ALA PRO GLU LEU GLN GLY GLU GLU          
  20 B  265  ARG ALA LEU LEU ILE ALA SER VAL ALA LYS LEU ALA ARG          
  21 B  265  GLN TYR VAL VAL HIS                                          

>  <HET>  (1) 
 3P7  A 301      29                                                       
  NA  A 302       1                                                       
 3P7  B 301      22                                                       
  NA  B 302       1                                                       

>  <HETNAM>  (1) 
     3P7 (2R)-2-[(1R)-1-{[(2R)-2-CARBOXY-2-(4-HYDROXYPHENYL)              
   2 3P7  ACETYL]AMINO}-1-METHOXY-2-OXOETHYL]-5-METHYLIDENE-5,6-          
   3 3P7  DIHYDRO-2H-1,3-OXAZINE-4-CARBOXYLIC ACID                        
      NA SODIUM ION                                                       

>  <HETSYN>  (1) 
     3P7 MOXALACTAM DERIVATIVE (OPEN FORM)                                

>  <FORMUL>  (1) 
   3  3P7    2(C18 H18 N2 O9)                                             
   4   NA    2(NA 1+)                                                     
   7  HOH   *305(H2 O)                                                    

>  <HELIX>  (1) 
   1 AA1 ASP A   21  GLN A   34  1                                  14    
   2 AA2 CYS A   61  THR A   63  5                                   3    
   3 AA3 PHE A   64  ALA A   78  1                                  15    
   4 AA4 ASP A   90  LEU A   94  5                                   5    
   5 AA5 ALA A   98  VAL A  105  1                                   8    
   6 AA6 VAL A  112  SER A  123  1                                  12    
   7 AA7 ASP A  124  GLY A  136  1                                  13    
   8 AA8 GLY A  137  LEU A  148  1                                  12    
   9 AA9 PRO A  160  THR A  164  5                                   5    
  10 AB1 THR A  175  GLY A  189  1                                  15    
  11 AB2 THR A  193  GLY A  206  1                                  14    
  12 AB3 THR A  213  LEU A  218  5                                   6    
  13 AB4 GLN A  262  GLN A  279  1                                  18    
  14 AB5 PHE B   22  GLN B   34  1                                  13    
  15 AB6 PHE B   64  ALA B   78  1                                  15    
  16 AB7 ASP B   90  LEU B   94  5                                   5    
  17 AB8 ALA B   98  VAL B  105  1                                   8    
  18 AB9 VAL B  112  LEU B  122  1                                  11    
  19 AC1 ASP B  124  GLY B  136  1                                  13    
  20 AC2 GLY B  137  LEU B  148  1                                  12    
  21 AC3 THR B  175  GLY B  189  1                                  15    
  22 AC4 THR B  193  GLY B  206  1                                  14    
  23 AC5 THR B  213  LEU B  218  5                                   6    
  24 AC6 GLN B  262  GLN B  279  1                                  18    

>  <SHEET>  (1) 
   1 AA1 5 LEU A  48  TYR A  52  0                                        
   2 AA1 5 LYS A  36  SER A  43 -1  N  LEU A  41   O  ILE A  49           
   3 AA1 5 LYS A 249  ASN A 257 -1  O  TYR A 255   N  GLY A  38           
   4 AA1 5 GLY A 235  ILE A 243 -1  N  ALA A 240   O  LEU A 252           
   5 AA1 5 VAL A 223  CYS A 231 -1  N  GLY A 229   O  ASN A 237           
   1 AA2 2 PHE A  58  ALA A  59  0                                        
   2 AA2 2 THR A 173  THR A 174 -1  O  THR A 174   N  PHE A  58           
   1 AA3 2 LYS A  86  HIS A  88  0                                        
   2 AA3 2 TYR A 109  THR A 111 -1  O  MET A 110   N  LEU A  87           
   1 AA4 5 LEU B  48  TYR B  52  0                                        
   2 AA4 5 LYS B  36  SER B  43 -1  N  LEU B  41   O  ILE B  49           
   3 AA4 5 LYS B 249  ASN B 257 -1  O  TYR B 255   N  GLY B  38           
   4 AA4 5 GLY B 235  ILE B 243 -1  N  ALA B 240   O  LEU B 252           
   5 AA4 5 VAL B 223  SER B 230 -1  N  GLY B 229   O  ASN B 237           
   1 AA5 2 PHE B  58  ALA B  59  0                                        
   2 AA5 2 THR B 173  THR B 174 -1  O  THR B 174   N  PHE B  58           
   1 AA6 2 LYS B  86  HIS B  88  0                                        
   2 AA6 2 TYR B 109  THR B 111 -1  O  MET B 110   N  LEU B  87           

>  <SSBOND>  (1) 
   1 CYS A   61    CYS A  231                          1555   1555  1.97  
   2 CYS B   61    CYS B  231                          1555   1555  2.03  

>  <LINK>  (1) 
       OG  SER A  62                 C1  3P7 A 301     1555   1555  1.53  
       O   ARG A 215                NA    NA A 302     1555   1555  2.26  
       O   LEU A 218                NA    NA A 302     1555   1555  2.50  
       OD1 ASP A 220                NA    NA A 302     1555   1555  2.52  
       O   ARG B 215                NA    NA B 302     1555   1555  2.32  
       O   LEU B 218                NA    NA B 302     1555   1555  2.46  
       OD1 ASP B 220                NA    NA B 302     1555   1555  2.55  
      NA    NA A 302                 O   HOH A 467     1555   1555  2.41  
      NA    NA A 302                 O   HOH A 414     1555   1555  2.38  
      NA    NA A 302                 O   HOH A 538     1555   1555  2.54  
      NA    NA B 302                 O   HOH B 477     1555   1555  2.34  
      NA    NA B 302                 O   HOH B 505     1555   1555  2.55  
      NA    NA B 302                 O   HOH B 501     1555   1555  2.59  

>  <CISPEP>  (1) 
   1 GLU A  159    PRO A  160          0         6.65                     

>  <SITE>  (1) 
   1 AC1 18 SER A  62  LYS A  65  TYR A  97  SER A 123                    
   2 AC1 18 ASN A 125  GLU A 159  ASN A 163  THR A 209                    
   3 AC1 18 LYS A 227  THR A 228  GLY A 229  SER A 230                    
   4 AC1 18 CYS A 231  HOH A 407  HOH A 435  HOH A 436                    
   5 AC1 18 HOH A 451  HOH A 500                                          
   1 AC2  6 ARG A 215  LEU A 218  ASP A 220  HOH A 414                    
   2 AC2  6 HOH A 467  HOH A 538                                          
   1 AC3  9 SER B  62  LYS B  65  SER B 123  ASN B 125                    
   2 AC3  9 LYS B 227  THR B 228  GLY B 229  SER B 230                    
   3 AC3  9 HOH B 490                                                     
   1 AC4  6 ARG B 215  LEU B 218  ASP B 220  HOH B 477                    
   2 AC4  6 HOH B 501  HOH B 505                                          

>  <ORIGX1>  (1) 
      1.000000  0.000000  0.000000        0.00000                         

>  <ORIGX2>  (1) 
      0.000000  1.000000  0.000000        0.00000                         

>  <ORIGX3>  (1) 
      0.000000  0.000000  1.000000        0.00000                         

>  <SCALE1>  (1) 
      0.014178  0.000000  0.000000        0.00000                         

>  <SCALE2>  (1) 
      0.000000  0.012359  0.000000        0.00000                         

>  <SCALE3>  (1) 
      0.000000  0.000000  0.011542        0.00000                         

>  <MASTER>  (1) 
      406    0    4   24   18    0   12    6 4246    2   72   42          

$$$$
