start_structures/Ligand_Substrate/Ligand_Complex_Stripped/AXL_3N7W.pdb
     RDKit          3D

 31 32  0  0  1  0  0  0  0  0999 V2000
   48.7947   51.8792   46.3356 N   0  0  0  0  0  0  0  0  0  0  0  0
   47.4447   51.3839   46.5432 C   0  0  2  0  0  0  0  0  0  0  0  0
   47.4038   49.8881   46.4407 C   0  0  0  0  0  0  0  0  0  0  0  0
   46.4741   49.2685   46.9365 O   0  0  0  0  0  0  0  0  0  0  0  0
   46.5147   52.0005   45.5086 C   0  0  0  0  0  0  0  0  0  0  0  0
   46.1680   53.3298   45.8754 O   0  0  0  0  0  0  0  0  0  0  0  0
   45.3216   54.1123   45.0910 C   0  0  0  0  0  0  0  0  0  0  0  0
   44.8342   53.6600   44.0184 O   0  0  0  0  0  0  0  0  0  0  0  0
   44.9897   55.5000   45.5421 C   0  0  2  0  0  0  0  0  0  0  0  0
   43.4982   55.6427   45.8563 C   0  0  1  0  0  0  0  0  0  0  0  0
   43.0033   54.5321   47.2253 S   0  0  0  0  0  0  0  0  0  0  0  0
   42.2145   55.9027   48.0880 C   0  0  0  0  0  0  0  0  0  0  0  0
   40.7458   55.9426   47.7094 C   0  0  0  0  0  0  0  0  0  0  0  0
   42.3150   55.7073   49.5936 C   0  0  0  0  0  0  0  0  0  0  0  0
   42.8955   57.1749   47.5927 C   0  0  1  0  0  0  0  0  0  0  0  0
   44.1509   57.5603   48.3275 C   0  0  0  0  0  0  0  0  0  0  0  0
   45.0924   56.7366   48.4760 O   0  0  0  0  0  0  0  0  0  0  0  0
   44.2827   58.8498   48.8237 O   0  0  0  0  0  0  0  0  0  0  0  0
   43.1707   57.0383   46.1665 N   0  0  0  0  0  0  0  0  0  0  0  0
   45.3850   56.4552   44.5149 N   0  0  0  0  0  0  0  0  0  0  0  0
   46.6462   57.0489   44.9321 C   0  0  1  0  0  0  0  0  0  0  0  0
   47.4486   57.2735   43.8111 O   0  0  0  0  0  0  0  0  0  0  0  0
   46.3910   58.3532   45.6903 C   0  0  2  0  0  0  0  0  0  0  0  0
   45.8650   59.3852   44.8080 N   0  0  0  0  0  0  0  0  0  0  0  0
   47.6162   58.8317   46.4053 C   0  0  0  0  0  0  0  0  0  0  0  0
   48.6933   59.3983   45.7063 C   0  0  0  0  0  0  0  0  0  0  0  0
   49.8326   59.8232   46.3958 C   0  0  0  0  0  0  0  0  0  0  0  0
   49.9024   59.6811   47.7846 C   0  0  0  0  0  0  0  0  0  0  0  0
   48.8339   59.1124   48.4840 C   0  0  0  0  0  0  0  0  0  0  0  0
   47.6943   58.6873   47.7948 C   0  0  0  0  0  0  0  0  0  0  0  0
   51.0333   60.1036   48.4694 O   0  0  0  0  0  0  0  0  0  0  0  0
  2  1  1  6
  2  3  1  0
  3  4  2  0
  5  2  1  0
  6  7  1  0
  6  5  1  0
  7  8  2  0
  9  7  1  0
  9 20  1  6
 10  9  1  0
 10 11  1  0
 10 19  1  1
 11 12  1  0
 12 13  1  0
 12 14  1  0
 12 15  1  0
 15 16  1  6
 15 19  1  0
 16 17  2  0
 16 18  1  0
 20 21  1  0
 21 22  1  6
 21 23  1  0
 23 24  1  6
 23 25  1  0
 25 26  2  0
 25 30  1  0
 26 27  1  0
 27 28  2  0
 28 29  1  0
 28 31  1  0
 29 30  2  0
M  END
>  <HEADER>  (1) 
    HYDROLASE/ANTIBIOTIC                    27-MAY-10   3N7W              

>  <TITLE>  (1) 
    CRYSTAL STRUCTURE OF BLAC-E166A COVALENTLY BOUND WITH AMOXICILLIN     

>  <COMPND>  (1) 
    MOL_ID: 1;                                                            
   2 MOLECULE: BETA-LACTAMASE;                                            
   3 CHAIN: A;                                                            
   4 SYNONYM: PENICILLINASE;                                              
   5 EC: 3.5.2.6;                                                         
   6 ENGINEERED: YES;                                                     
   7 MUTATION: YES                                                        

>  <SOURCE>  (1) 
    MOL_ID: 1;                                                            
   2 ORGANISM_SCIENTIFIC: MYCOBACTERIUM TUBERCULOSIS;                     
   3 ORGANISM_TAXID: 1773;                                                
   4 STRAIN: H37RV;                                                       
   5 GENE: BLAA, BLAC, MT2128, MTCY49.07C, RV2068C;                       
   6 EXPRESSION_SYSTEM: ESCHERICHIA COLI;                                 
   7 EXPRESSION_SYSTEM_TAXID: 562;                                        
   8 EXPRESSION_SYSTEM_STRAIN: ROSETTA2;                                  
   9 EXPRESSION_SYSTEM_VECTOR: PLASMID;                                   
  10 EXPRESSION_SYSTEM_PLASMID: PET28A                                    

>  <KEYWDS>  (1) 
    PENICILLIN BINDING PROTEIN, BETA-LACTAM COVALENT ADDUCT, HYDROLASE-   
   2 ANTIBIOTIC COMPLEX                                                   

>  <EXPDTA>  (1) 
    X-RAY DIFFRACTION                                                     

>  <AUTHOR>  (1) 
    L.W.TREMBLAY,J.S.BLANCHARD                                            

>  <REVDAT>  (1) 
   3   08-NOV-17 3N7W    1       REMARK                                   
   2   28-MAR-12 3N7W    1       HEADER KEYWDS HETSYN                     
   1   14-DEC-11 3N7W    0                                                

>  <JRNL>  (1) 
      AUTH   L.W.TREMBLAY,J.S.BLANCHARD                                   
      TITL   BLAC-E166A BOUND WITH BTEA-LACTAMS OF ALL CLASSES            
      REF    TO BE PUBLISHED                                              
      REFN                                                                

>  <REMARK>  (1) 
   2                                                                      
   2 RESOLUTION.    1.70 ANGSTROMS.                                       
   3                                                                      
   3 REFINEMENT.                                                          
   3   PROGRAM     : REFMAC                                               
   3   AUTHORS     : MURSHUDOV,VAGIN,DODSON                               
   3                                                                      
   3    REFINEMENT TARGET : MAXIMUM LIKELIHOOD                            
   3                                                                      
   3  DATA USED IN REFINEMENT.                                            
   3   RESOLUTION RANGE HIGH (ANGSTROMS) : 1.70                           
   3   RESOLUTION RANGE LOW  (ANGSTROMS) : 50.00                          
   3   DATA CUTOFF            (SIGMA(F)) : 0.000                          
   3   COMPLETENESS FOR RANGE        (%) : 91.1                           
   3   NUMBER OF REFLECTIONS             : 26431                          
   3                                                                      
   3  FIT TO DATA USED IN REFINEMENT.                                     
   3   CROSS-VALIDATION METHOD          : THROUGHOUT                      
   3   FREE R VALUE TEST SET SELECTION  : RANDOM                          
   3   R VALUE     (WORKING + TEST SET) : 0.157                           
   3   R VALUE            (WORKING SET) : 0.156                           
   3   FREE R VALUE                     : 0.186                           
   3   FREE R VALUE TEST SET SIZE   (%) : 5.100                           
   3   FREE R VALUE TEST SET COUNT      : 1343                            
   3                                                                      
   3  FIT IN THE HIGHEST RESOLUTION BIN.                                  
   3   TOTAL NUMBER OF BINS USED           : 20                           
   3   BIN RESOLUTION RANGE HIGH       (A) : 1.70                         
   3   BIN RESOLUTION RANGE LOW        (A) : 1.74                         
   3   REFLECTION IN BIN     (WORKING SET) : 1632                         
   3   BIN COMPLETENESS (WORKING+TEST) (%) : 80.88                        
   3   BIN R VALUE           (WORKING SET) : 0.1970                       
   3   BIN FREE R VALUE SET COUNT          : 85                           
   3   BIN FREE R VALUE                    : 0.2320                       
   3                                                                      
   3  NUMBER OF NON-HYDROGEN ATOMS USED IN REFINEMENT.                    
   3   PROTEIN ATOMS            : 1984                                    
   3   NUCLEIC ACID ATOMS       : 0                                       
   3   HETEROGEN ATOMS          : 35                                      
   3   SOLVENT ATOMS            : 272                                     
   3                                                                      
   3  B VALUES.                                                           
   3   FROM WILSON PLOT           (A**2) : 15.20                          
   3   MEAN B VALUE      (OVERALL, A**2) : 15.03                          
   3   OVERALL ANISOTROPIC B VALUE.                                       
   3    B11 (A**2) : 0.26000                                              
   3    B22 (A**2) : -0.05000                                             
   3    B33 (A**2) : -0.20000                                             
   3    B12 (A**2) : 0.00000                                              
   3    B13 (A**2) : 0.00000                                              
   3    B23 (A**2) : 0.00000                                              
   3                                                                      
   3  ESTIMATED OVERALL COORDINATE ERROR.                                 
   3   ESU BASED ON R VALUE                            (A): NULL          
   3   ESU BASED ON FREE R VALUE                       (A): 0.100         
   3   ESU BASED ON MAXIMUM LIKELIHOOD                 (A): 0.053         
   3   ESU FOR B VALUES BASED ON MAXIMUM LIKELIHOOD (A**2): 1.580         
   3                                                                      
   3 CORRELATION COEFFICIENTS.                                            
   3   CORRELATION COEFFICIENT FO-FC      : 0.963                         
   3   CORRELATION COEFFICIENT FO-FC FREE : 0.939                         
   3                                                                      
   3  RMS DEVIATIONS FROM IDEAL VALUES        COUNT    RMS    WEIGHT      
   3   BOND LENGTHS REFINED ATOMS        (A):  2057 ; 0.010 ; 0.022       
   3   BOND LENGTHS OTHERS               (A):  NULL ;  NULL ;  NULL       
   3   BOND ANGLES REFINED ATOMS   (DEGREES):  2812 ; 1.273 ; 1.983       
   3   BOND ANGLES OTHERS          (DEGREES):  NULL ;  NULL ;  NULL       
   3   TORSION ANGLES, PERIOD 1    (DEGREES):   264 ; 5.921 ; 5.000       
   3   TORSION ANGLES, PERIOD 2    (DEGREES):    87 ;38.569 ;23.103       
   3   TORSION ANGLES, PERIOD 3    (DEGREES):   302 ;10.398 ;15.000       
   3   TORSION ANGLES, PERIOD 4    (DEGREES):    19 ;20.947 ;15.000       
   3   CHIRAL-CENTER RESTRAINTS       (A**3):   325 ; 0.085 ; 0.200       
   3   GENERAL PLANES REFINED ATOMS      (A):  1575 ; 0.005 ; 0.021       
   3   GENERAL PLANES OTHERS             (A):  NULL ;  NULL ;  NULL       
   3   NON-BONDED CONTACTS REFINED ATOMS (A):  NULL ;  NULL ;  NULL       
   3   NON-BONDED CONTACTS OTHERS        (A):  NULL ;  NULL ;  NULL       
   3   NON-BONDED TORSION REFINED ATOMS  (A):  NULL ;  NULL ;  NULL       
   3   NON-BONDED TORSION OTHERS         (A):  NULL ;  NULL ;  NULL       
   3   H-BOND (X...Y) REFINED ATOMS      (A):  NULL ;  NULL ;  NULL       
   3   H-BOND (X...Y) OTHERS             (A):  NULL ;  NULL ;  NULL       
   3   POTENTIAL METAL-ION REFINED ATOMS (A):  NULL ;  NULL ;  NULL       
   3   POTENTIAL METAL-ION OTHERS        (A):  NULL ;  NULL ;  NULL       
   3   SYMMETRY VDW REFINED ATOMS        (A):  NULL ;  NULL ;  NULL       
   3   SYMMETRY VDW OTHERS               (A):  NULL ;  NULL ;  NULL       
   3   SYMMETRY H-BOND REFINED ATOMS     (A):  NULL ;  NULL ;  NULL       
   3   SYMMETRY H-BOND OTHERS            (A):  NULL ;  NULL ;  NULL       
   3   SYMMETRY METAL-ION REFINED ATOMS  (A):  NULL ;  NULL ;  NULL       
   3   SYMMETRY METAL-ION OTHERS         (A):  NULL ;  NULL ;  NULL       
   3                                                                      
   3  ISOTROPIC THERMAL FACTOR RESTRAINTS.     COUNT   RMS    WEIGHT      
   3   MAIN-CHAIN BOND REFINED ATOMS  (A**2):  1321 ; 0.590 ; 1.500       
   3   MAIN-CHAIN BOND OTHER ATOMS    (A**2):  NULL ;  NULL ;  NULL       
   3   MAIN-CHAIN ANGLE REFINED ATOMS (A**2):  2113 ; 1.092 ; 2.000       
   3   MAIN-CHAIN ANGLE OTHER ATOMS   (A**2):  NULL ;  NULL ;  NULL       
   3   SIDE-CHAIN BOND REFINED ATOMS  (A**2):   736 ; 1.819 ; 3.000       
   3   SIDE-CHAIN BOND OTHER ATOMS    (A**2):  NULL ;  NULL ;  NULL       
   3   SIDE-CHAIN ANGLE REFINED ATOMS (A**2):   699 ; 3.060 ; 4.500       
   3   SIDE-CHAIN ANGLE OTHER ATOMS   (A**2):  NULL ;  NULL ;  NULL       
   3   LONG RANGE B REFINED ATOMS     (A**2):  NULL ;  NULL ;  NULL       
   3   LONG RANGE B OTHER ATOMS       (A**2):  NULL ;  NULL ;  NULL       
   3                                                                      
   3 ANISOTROPIC THERMAL FACTOR RESTRAINTS.    COUNT   RMS   WEIGHT       
   3   RIGID-BOND RESTRAINTS          (A**2):  NULL ;  NULL ;  NULL       
   3   SPHERICITY; FREE ATOMS         (A**2):  NULL ;  NULL ;  NULL       
   3   SPHERICITY; BONDED ATOMS       (A**2):  NULL ;  NULL ;  NULL       
   3                                                                      
   3  NCS RESTRAINTS STATISTICS                                           
   3   NUMBER OF DIFFERENT NCS GROUPS : NULL                              
   3                                                                      
   3  TLS DETAILS                                                         
   3   NUMBER OF TLS GROUPS  : NULL                                       
   3                                                                      
   3  BULK SOLVENT MODELLING.                                             
   3   METHOD USED : MASK                                                 
   3   PARAMETERS FOR MASK CALCULATION                                    
   3   VDW PROBE RADIUS   : 1.40                                          
   3   ION PROBE RADIUS   : 0.80                                          
   3   SHRINKAGE RADIUS   : 0.80                                          
   3                                                                      
   3  OTHER REFINEMENT REMARKS: HYDROGENS HAVE BEEN ADDED IN THE RIDING   
   3  POSITIONS. U VALUES REFINED INDIVIDUALLY                            
   4                                                                      
   4 3N7W COMPLIES WITH FORMAT V. 3.30, 13-JUL-11                         
 100                                                                      
 100 THIS ENTRY HAS BEEN PROCESSED BY RCSB ON 08-JUN-10.                  
 100 THE DEPOSITION ID IS D_1000059491.                                   
 200                                                                      
 200 EXPERIMENTAL DETAILS                                                 
 200  EXPERIMENT TYPE                : X-RAY DIFFRACTION                  
 200  DATE OF DATA COLLECTION        : 2009                               
 200  TEMPERATURE           (KELVIN) : 100                                
 200  PH                             : 7.5                                
 200  NUMBER OF CRYSTALS USED        : 1                                  
 200                                                                      
 200  SYNCHROTRON              (Y/N) : Y                                  
 200  RADIATION SOURCE               : NSLS                               
 200  BEAMLINE                       : X12C                               
 200  X-RAY GENERATOR MODEL          : NULL                               
 200  MONOCHROMATIC OR LAUE    (M/L) : NULL                               
 200  WAVELENGTH OR RANGE        (A) : 1.100                              
 200  MONOCHROMATOR                  : SI(111) CHANNEL CUT                
 200  OPTICS                         : NULL                               
 200                                                                      
 200  DETECTOR TYPE                  : CCD                                
 200  DETECTOR MANUFACTURER          : ADSC QUANTUM 210                   
 200  INTENSITY-INTEGRATION SOFTWARE : HKL-2000                           
 200  DATA SCALING SOFTWARE          : HKL-2000                           
 200                                                                      
 200  NUMBER OF UNIQUE REFLECTIONS   : 26464                              
 200  RESOLUTION RANGE HIGH      (A) : 1.700                              
 200  RESOLUTION RANGE LOW       (A) : 50.610                             
 200  REJECTION CRITERIA  (SIGMA(I)) : 0.000                              
 200                                                                      
 200 OVERALL.                                                             
 200  COMPLETENESS FOR RANGE     (%) : 91.8                               
 200  DATA REDUNDANCY                : 4.200                              
 200  R MERGE                    (I) : 0.04600                            
 200  R SYM                      (I) : NULL                               
 200  <I/SIGMA(I)> FOR THE DATA SET  : 13.9000                            
 200                                                                      
 200 IN THE HIGHEST RESOLUTION SHELL.                                     
 200  HIGHEST RESOLUTION SHELL, RANGE HIGH (A) : 1.70                     
 200  HIGHEST RESOLUTION SHELL, RANGE LOW  (A) : 1.74                     
 200  COMPLETENESS FOR SHELL     (%) : 80.9                               
 200  DATA REDUNDANCY IN SHELL       : 4.10                               
 200  R MERGE FOR SHELL          (I) : 0.29300                            
 200  R SYM FOR SHELL            (I) : NULL                               
 200  <I/SIGMA(I)> FOR SHELL         : 2.700                              
 200                                                                      
 200 DIFFRACTION PROTOCOL: SINGLE WAVELENGTH                              
 200 METHOD USED TO DETERMINE THE STRUCTURE: MOLECULAR REPLACEMENT        
 200 SOFTWARE USED: GENERAL                                               
 200 STARTING MODEL: PDB ENTRY 3DWZ                                       
 200                                                                      
 200 REMARK: NULL                                                         
 280                                                                      
 280 CRYSTAL                                                              
 280 SOLVENT CONTENT, VS   (%): 45.95                                     
 280 MATTHEWS COEFFICIENT, VM (ANGSTROMS**3/DA): 2.28                     
 280                                                                      
 280 CRYSTALLIZATION CONDITIONS: 0.1 M HEPES, 2 M NH4H2PO4, PH 7.5,       
 280  VAPOR DIFFUSION, SITTING DROP, TEMPERATURE 298K                     
 290                                                                      
 290 CRYSTALLOGRAPHIC SYMMETRY                                            
 290 SYMMETRY OPERATORS FOR SPACE GROUP: P 21 21 21                       
 290                                                                      
 290      SYMOP   SYMMETRY                                                
 290     NNNMMM   OPERATOR                                                
 290       1555   X,Y,Z                                                   
 290       2555   -X+1/2,-Y,Z+1/2                                         
 290       3555   -X,Y+1/2,-Z+1/2                                         
 290       4555   X+1/2,-Y+1/2,-Z                                         
 290                                                                      
 290     WHERE NNN -> OPERATOR NUMBER                                     
 290           MMM -> TRANSLATION VECTOR                                  
 290                                                                      
 290 CRYSTALLOGRAPHIC SYMMETRY TRANSFORMATIONS                            
 290 THE FOLLOWING TRANSFORMATIONS OPERATE ON THE ATOM/HETATM             
 290 RECORDS IN THIS ENTRY TO PRODUCE CRYSTALLOGRAPHICALLY                
 290 RELATED MOLECULES.                                                   
 290   SMTRY1   1  1.000000  0.000000  0.000000        0.00000            
 290   SMTRY2   1  0.000000  1.000000  0.000000        0.00000            
 290   SMTRY3   1  0.000000  0.000000  1.000000        0.00000            
 290   SMTRY1   2 -1.000000  0.000000  0.000000       24.92750            
 290   SMTRY2   2  0.000000 -1.000000  0.000000        0.00000            
 290   SMTRY3   2  0.000000  0.000000  1.000000       37.79300            
 290   SMTRY1   3 -1.000000  0.000000  0.000000        0.00000            
 290   SMTRY2   3  0.000000  1.000000  0.000000       34.07500            
 290   SMTRY3   3  0.000000  0.000000 -1.000000       37.79300            
 290   SMTRY1   4  1.000000  0.000000  0.000000       24.92750            
 290   SMTRY2   4  0.000000 -1.000000  0.000000       34.07500            
 290   SMTRY3   4  0.000000  0.000000 -1.000000        0.00000            
 290                                                                      
 290 REMARK: NULL                                                         
 300                                                                      
 300 BIOMOLECULE: 1                                                       
 300 SEE REMARK 350 FOR THE AUTHOR PROVIDED AND/OR PROGRAM                
 300 GENERATED ASSEMBLY INFORMATION FOR THE STRUCTURE IN                  
 300 THIS ENTRY. THE REMARK MAY ALSO PROVIDE INFORMATION ON               
 300 BURIED SURFACE AREA.                                                 
 350                                                                      
 350 COORDINATES FOR A COMPLETE MULTIMER REPRESENTING THE KNOWN           
 350 BIOLOGICALLY SIGNIFICANT OLIGOMERIZATION STATE OF THE                
 350 MOLECULE CAN BE GENERATED BY APPLYING BIOMT TRANSFORMATIONS          
 350 GIVEN BELOW.  BOTH NON-CRYSTALLOGRAPHIC AND                          
 350 CRYSTALLOGRAPHIC OPERATIONS ARE GIVEN.                               
 350                                                                      
 350 BIOMOLECULE: 1                                                       
 350 AUTHOR DETERMINED BIOLOGICAL UNIT: MONOMERIC                         
 350 SOFTWARE DETERMINED QUATERNARY STRUCTURE: MONOMERIC                  
 350 SOFTWARE USED: PISA                                                  
 350 APPLY THE FOLLOWING TO CHAINS: A                                     
 350   BIOMT1   1  1.000000  0.000000  0.000000        0.00000            
 350   BIOMT2   1  0.000000  1.000000  0.000000        0.00000            
 350   BIOMT3   1  0.000000  0.000000  1.000000        0.00000            
 500                                                                      
 500 GEOMETRY AND STEREOCHEMISTRY                                         
 500 SUBTOPIC: TORSION ANGLES                                             
 500                                                                      
 500 TORSION ANGLES OUTSIDE THE EXPECTED RAMACHANDRAN REGIONS:            
 500 (M=MODEL NUMBER; RES=RESIDUE NAME; C=CHAIN IDENTIFIER;               
 500 SSEQ=SEQUENCE NUMBER; I=INSERTION CODE).                             
 500                                                                      
 500 STANDARD TABLE:                                                      
 500 FORMAT:(10X,I3,1X,A3,1X,A1,I4,A1,4X,F7.2,3X,F7.2)                    
 500                                                                      
 500 EXPECTED VALUES: GJ KLEYWEGT AND TA JONES (1996). PHI/PSI-           
 500 CHOLOGY: RAMACHANDRAN REVISITED. STRUCTURE 4, 1395 - 1400            
 500                                                                      
 500  M RES CSSEQI        PSI       PHI                                   
 500    ASP A  56       57.96     39.63                                   
 500    CYS A  83     -146.69     45.43                                   
 500    GLU A 181     -169.13   -103.58                                   
 500    ARG A 236     -118.57   -111.75                                   
 500                                                                      
 500 REMARK: NULL                                                         
 800                                                                      
 800 SITE                                                                 
 800 SITE_IDENTIFIER: AC1                                                 
 800 EVIDENCE_CODE: SOFTWARE                                              
 800 SITE_DESCRIPTION: BINDING SITE FOR RESIDUE AXL A 1                   
 800                                                                      
 800 SITE_IDENTIFIER: AC2                                                 
 800 EVIDENCE_CODE: SOFTWARE                                              
 800 SITE_DESCRIPTION: BINDING SITE FOR RESIDUE PO4 A 308                 
 800                                                                      
 800 SITE_IDENTIFIER: AC3                                                 
 800 EVIDENCE_CODE: SOFTWARE                                              
 800 SITE_DESCRIPTION: BINDING SITE FOR RESIDUE PO4 A 309                 

>  <DBREF>  (1) 
 3N7W A   43   307  UNP    P0C5C1   BLAC_MYCTU      43    307             

>  <SEQADV>  (1) 
 3N7W ALA A  182  UNP  P0C5C1    GLU   182 ENGINEERED MUTATION            

>  <SEQRES>  (1) 
   1 A  265  ASP LEU ALA ASP ARG PHE ALA GLU LEU GLU ARG ARG TYR          
   2 A  265  ASP ALA ARG LEU GLY VAL TYR VAL PRO ALA THR GLY THR          
   3 A  265  THR ALA ALA ILE GLU TYR ARG ALA ASP GLU ARG PHE ALA          
   4 A  265  PHE CYS SER THR PHE LYS ALA PRO LEU VAL ALA ALA VAL          
   5 A  265  LEU HIS GLN ASN PRO LEU THR HIS LEU ASP LYS LEU ILE          
   6 A  265  THR TYR THR SER ASP ASP ILE ARG SER ILE SER PRO VAL          
   7 A  265  ALA GLN GLN HIS VAL GLN THR GLY MET THR ILE GLY GLN          
   8 A  265  LEU CYS ASP ALA ALA ILE ARG TYR SER ASP GLY THR ALA          
   9 A  265  ALA ASN LEU LEU LEU ALA ASP LEU GLY GLY PRO GLY GLY          
  10 A  265  GLY THR ALA ALA PHE THR GLY TYR LEU ARG SER LEU GLY          
  11 A  265  ASP THR VAL SER ARG LEU ASP ALA GLU ALA PRO GLU LEU          
  12 A  265  ASN ARG ASP PRO PRO GLY ASP GLU ARG ASP THR THR THR          
  13 A  265  PRO HIS ALA ILE ALA LEU VAL LEU GLN GLN LEU VAL LEU          
  14 A  265  GLY ASN ALA LEU PRO PRO ASP LYS ARG ALA LEU LEU THR          
  15 A  265  ASP TRP MET ALA ARG ASN THR THR GLY ALA LYS ARG ILE          
  16 A  265  ARG ALA GLY PHE PRO ALA ASP TRP LYS VAL ILE ASP LYS          
  17 A  265  THR GLY THR GLY ASP TYR GLY ARG ALA ASN ASP ILE ALA          
  18 A  265  VAL VAL TRP SER PRO THR GLY VAL PRO TYR VAL VAL ALA          
  19 A  265  VAL MET SER ASP ARG ALA GLY GLY GLY TYR ASP ALA GLU          
  20 A  265  PRO ARG GLU ALA LEU LEU ALA GLU ALA ALA THR CYS VAL          
  21 A  265  ALA GLY VAL LEU ALA                                          

>  <HET>  (1) 
 AXL  A   1      25                                                       
 PO4  A 308       5                                                       
 PO4  A 309       5                                                       

>  <HETNAM>  (1) 
     AXL 2-{1-[2-AMINO-2-(4-HYDROXY-PHENYL)-ACETYLAMINO]-2-OXO-           
   2 AXL  ETHYL}-5,5-DIMETHYL-THIAZOLIDINE-4-CARBOXYLIC ACID              
     PO4 PHOSPHATE ION                                                    

>  <HETSYN>  (1) 
     AXL AMOXICILLIN, BOUND FORM                                          

>  <FORMUL>  (1) 
   2  AXL    C16 H21 N3 O5 S                                              
   3  PO4    2(O4 P 3-)                                                   
   5  HOH   *272(H2 O)                                                    

>  <HELIX>  (1) 
   1   1 ASP A   43  TYR A   55  1                                  13    
   2   2 CYS A   83  THR A   85  5                                   3    
   3   3 PHE A   86  ASN A   98  1                                  13    
   4   4 PRO A   99  ASP A  104  5                                   6    
   5   5 THR A  110  ILE A  114  5                                   5    
   6   6 ILE A  131  TYR A  141  1                                  11    
   7   7 ASP A  143  GLY A  155  1                                  13    
   8   8 GLY A  156  GLY A  159  5                                   4    
   9   9 GLY A  160  LEU A  171  1                                  12    
  10  10 PRO A  183  ARG A  187  5                                   5    
  11  11 THR A  198  LEU A  211  1                                  14    
  12  12 PRO A  216  ARG A  229  1                                  14    
  13  13 ARG A  236  PHE A  241  1                                   6    
  14  14 ARG A  281  GLY A  285  5                                   5    
  15  15 ARG A  291  ALA A  307  1                                  17    

>  <SHEET>  (1) 
   1   A 5 ILE A  72  TYR A  74  0                                        
   2   A 5 ARG A  58  VAL A  63 -1  N  VAL A  61   O  TYR A  74           
   3   A 5 PRO A 272  ASP A 280 -1  O  MET A 278   N  GLY A  60           
   4   A 5 ARG A 258  TRP A 266 -1  N  VAL A 265   O  TYR A 273           
   5   A 5 LYS A 246  GLY A 254 -1  N  GLY A 252   O  ASN A 260           
   1   B 2 PHE A  80  ALA A  81  0                                        
   2   B 2 THR A 196  THR A 197 -1  O  THR A 197   N  PHE A  80           
   1   C 2 LEU A 106  ILE A 107  0                                        
   2   C 2 MET A 129  THR A 130 -1  O  MET A 129   N  ILE A 107           

>  <LINK>  (1) 
       OG  SER A  84                 C1  AXL A   1     1555   1555  1.44  

>  <CISPEP>  (1) 
   1 ALA A  182    PRO A  183          0         3.69                     

>  <SITE>  (1) 
   1 AC1 16 CYS A  83  SER A  84  SER A 142  ASN A 186                    
   2 AC1 16 GLU A 193  THR A 251  GLY A 252  THR A 253                    
   3 AC1 16 GLY A 254  PRO A 290  PO4 A 308  HOH A 358                    
   4 AC1 16 HOH A 359  HOH A 390  HOH A 416  HOH A 476                    
   1 AC2  9 AXL A   1  ARG A  79  ARG A 187  GLU A 193                    
   2 AC2  9 ASP A 255  TYR A 286  HOH A 330  HOH A 348                    
   3 AC2  9 HOH A 359                                                     
   1 AC3  6 HOH A  16  ARG A  75  GLU A  78  GLU A 184                    
   2 AC3  6 HOH A 316  HOH A 486                                          

>  <ORIGX1>  (1) 
      1.000000  0.000000  0.000000        0.00000                         

>  <ORIGX2>  (1) 
      0.000000  1.000000  0.000000        0.00000                         

>  <ORIGX3>  (1) 
      0.000000  0.000000  1.000000        0.00000                         

>  <SCALE1>  (1) 
      0.020058  0.000000  0.000000        0.00000                         

>  <SCALE2>  (1) 
      0.000000  0.014673  0.000000        0.00000                         

>  <SCALE3>  (1) 
      0.000000  0.000000  0.013230        0.00000                         

>  <MASTER>  (1) 
      269    0    3   15    9    0    9    6 2291    1   36   21          

$$$$
