start_structures/Ligand_Substrate/Ligand_Complex_Stripped/1X6_6W33.pdb
     RDKit          3D

 17 15  0  0  1  0  0  0  0  0999 V2000
   48.7947   51.8790   46.3356 N   0  0  0  0  0  0  0  0  0  0  0  0
   47.4448   51.3838   46.5434 C   0  0  2  0  0  0  0  0  0  0  0  0
   47.4039   49.8880   46.4407 C   0  0  0  0  0  0  0  0  0  0  0  0
   46.4742   49.2683   46.9365 O   0  0  0  0  0  0  0  0  0  0  0  0
   46.5146   52.0006   45.5089 C   0  0  0  0  0  0  0  0  0  0  0  0
   46.1678   53.3304   45.8751 O   0  0  0  0  0  0  0  0  0  0  0  0
   45.3279   54.1153   45.0850 C   0  0  0  0  0  0  0  0  0  0  0  0
   44.8551   53.6711   44.0042 O   0  0  0  0  0  0  0  0  0  0  0  0
   45.0126   55.5060   45.5081 C   0  0  0  0  0  0  0  0  0  0  0  0
   46.1140   56.4429   45.0548 C   0  0  0  0  0  0  0  0  0  0  0  0
   45.7997   57.7965   45.4724 N   0  0  0  0  0  0  0  0  0  0  0  0
   44.9506   51.8385   46.0048 N   0  0  0  0  0  0  0  0  0  0  0  0
   45.6044   52.0091   44.7176 C   0  0  2  0  0  0  0  0  0  0  0  0
   46.4703   50.8253   44.4243 C   0  0  0  0  0  0  0  0  0  0  0  0
   47.3819   50.5122   45.1745 O   0  0  0  0  0  0  0  0  0  0  0  0
   46.4316   53.2837   44.7169 C   0  0  0  0  0  0  0  0  0  0  0  0
   45.5919   54.3955   44.7871 O   0  0  0  0  0  0  0  0  0  0  0  0
  2  3  1  0
  2  5  1  0
  2  1  1  6
  3  4  2  0
  5  6  1  0
  6  7  1  0
  7  8  2  0
  7  9  1  0
  9 10  1  0
 10 11  1  0
 13 12  1  1
 13 14  1  0
 14 15  2  0
 16 13  1  0
 17 16  1  0
M  END
>  <HEADER>  (1) 
    HYDROLASE                               08-MAR-20   6W33              

>  <TITLE>  (1) 
    CRYSTAL STRUCTURE OF CLASS A BETA-LACTAMASE FROM BACILLUS CEREUS IN   
   2 THE COMPLEX WITH THE BETA-LACTAMASE INHIBITOR CLAVULANATE            

>  <COMPND>  (1) 
    MOL_ID: 1;                                                            
   2 MOLECULE: BETA-LACTAMASE;                                            
   3 CHAIN: A, B;                                                         
   4 EC: 3.5.2.6;                                                         
   5 ENGINEERED: YES;                                                     
   6 MUTATION: YES                                                        

>  <SOURCE>  (1) 
    MOL_ID: 1;                                                            
   2 ORGANISM_SCIENTIFIC: BACILLUS CEREUS (STRAIN ATCC 14579 / DSM 31 /   
   3 JCM 2152 / NBRC 15305 / NCIMB 9373 / NRRL B-3711);                   
   4 ORGANISM_TAXID: 226900;                                              
   5 STRAIN: ATCC 14579 / DSM 31 / JCM 2152 / NBRC 15305 / NCIMB 9373 /   
   6 NRRL B-3711;                                                         
   7 GENE: BLA, EJ379_12650;                                              
   8 EXPRESSION_SYSTEM: ESCHERICHIA COLI BL21(DE3);                       
   9 EXPRESSION_SYSTEM_TAXID: 469008;                                     
  10 EXPRESSION_SYSTEM_VARIANT: GOLD;                                     
  11 EXPRESSION_SYSTEM_VECTOR_TYPE: PLASMID;                              
  12 EXPRESSION_SYSTEM_PLASMID: PMCSG53                                   

>  <KEYWDS>  (1) 
    BETA-LACTAMASES, ANTIBIOTIC RESISTANT, INHIBITOR, STRUCTURAL          
   2 GENOMICS, CENTER FOR STRUCTURAL GENOMICS OF INFECTIOUS DISEASES,     
   3 CSGID, HYDROLASE                                                     

>  <EXPDTA>  (1) 
    X-RAY DIFFRACTION                                                     

>  <AUTHOR>  (1) 
    Y.KIM,N.MALTSEVA,M.ENDRES,A.JOACHIMIAK,CENTER FOR STRUCTURAL GENOMICS 
   2 OF INFECTIOUS DISEASES (CSGID)                                       

>  <REVDAT>  (1) 
   1   25-MAR-20 6W33    0                                                

>  <JRNL>  (1) 
      AUTH   Y.KIM,N.MALTSEVA,M.ENDRES,A.JOACHIMIAK,                      
      AUTH 2 CENTER FOR STRUCTURAL GENOMICS OF INFECTIOUS DISEASES        
      AUTH 3 (CSGID)                                                      
      TITL   CRYSTAL STRUCTURE OF CLASS A BETA-LACTAMASE FROM BACILLUS    
      TITL 2 CEREUS IN THE COMPLEX WITH THE BETA-LACTAMASE INHIBITOR      
      TITL 3 CLAVULANATE                                                  
      REF    TO BE PUBLISHED                                              
      REFN                                                                

>  <REMARK>  (1) 
   2                                                                      
   2 RESOLUTION.    1.85 ANGSTROMS.                                       
   3                                                                      
   3 REFINEMENT.                                                          
   3   PROGRAM     : PHENIX 1.13_2998                                     
   3   AUTHORS     : PAUL ADAMS,PAVEL AFONINE,VINCENT CHEN,IAN            
   3               : DAVIS,KRESHNA GOPAL,RALF GROSSE-KUNSTLEVE,           
   3               : LI-WEI HUNG,ROBERT IMMORMINO,TOM IOERGER,            
   3               : AIRLIE MCCOY,ERIK MCKEE,NIGEL MORIARTY,              
   3               : REETAL PAI,RANDY READ,JANE RICHARDSON,               
   3               : DAVID RICHARDSON,TOD ROMO,JIM SACCHETTINI,           
   3               : NICHOLAS SAUTER,JACOB SMITH,LAURENT                  
   3               : STORONI,TOM TERWILLIGER,PETER ZWART                  
   3                                                                      
   3    REFINEMENT TARGET : NULL                                          
   3                                                                      
   3  DATA USED IN REFINEMENT.                                            
   3   RESOLUTION RANGE HIGH (ANGSTROMS) : 1.85                           
   3   RESOLUTION RANGE LOW  (ANGSTROMS) : 37.13                          
   3   MIN(FOBS/SIGMA_FOBS)              : 1.980                          
   3   COMPLETENESS FOR RANGE        (%) : 98.5                           
   3   NUMBER OF REFLECTIONS             : 43702                          
   3                                                                      
   3  FIT TO DATA USED IN REFINEMENT.                                     
   3   R VALUE     (WORKING + TEST SET) : 0.185                           
   3   R VALUE            (WORKING SET) : 0.184                           
   3   FREE R VALUE                     : 0.217                           
   3   FREE R VALUE TEST SET SIZE   (%) : 5.130                           
   3   FREE R VALUE TEST SET COUNT      : 2242                            
   3                                                                      
   3  FIT TO DATA USED IN REFINEMENT (IN BINS).                           
   3   BIN  RESOLUTION RANGE  COMPL.    NWORK NFREE   RWORK  RFREE        
   3     1 37.1300 -  4.6600    0.99     2575   174  0.1470 0.1571        
   3     2  4.6600 -  3.7000    0.98     2561   155  0.1496 0.1527        
   3     3  3.7000 -  3.2300    1.00     2650   130  0.1723 0.2439        
   3     4  3.2300 -  2.9400    0.99     2569   160  0.2046 0.2622        
   3     5  2.9400 -  2.7300    0.99     2588   142  0.2012 0.2661        
   3     6  2.7300 -  2.5700    1.00     2613   143  0.2009 0.2559        
   3     7  2.5700 -  2.4400    0.99     2656   121  0.2012 0.2739        
   3     8  2.4400 -  2.3300    0.99     2609   137  0.2018 0.2571        
   3     9  2.3300 -  2.2400    0.98     2580   134  0.2083 0.2694        
   3    10  2.2400 -  2.1600    0.99     2613   143  0.2067 0.2426        
   3    11  2.1600 -  2.1000    1.00     2631   130  0.2090 0.2664        
   3    12  2.1000 -  2.0400    0.98     2571   132  0.2073 0.2476        
   3    13  2.0400 -  1.9800    0.99     2646   120  0.2224 0.2756        
   3    14  1.9800 -  1.9300    0.99     2603   167  0.2366 0.3017        
   3    15  1.9300 -  1.8900    0.98     2548   140  0.2560 0.2532        
   3    16  1.8900 -  1.8500    0.92     2447   114  0.2804 0.3288        
   3                                                                      
   3  BULK SOLVENT MODELLING.                                             
   3   METHOD USED        : NULL                                          
   3   SOLVENT RADIUS     : 1.11                                          
   3   SHRINKAGE RADIUS   : 0.90                                          
   3   K_SOL              : NULL                                          
   3   B_SOL              : NULL                                          
   3                                                                      
   3  ERROR ESTIMATES.                                                    
   3   COORDINATE ERROR (MAXIMUM-LIKELIHOOD BASED)     : 0.239            
   3   PHASE ERROR (DEGREES, MAXIMUM-LIKELIHOOD BASED) : 25.378           
   3                                                                      
   3  B VALUES.                                                           
   3   FROM WILSON PLOT           (A**2) : 29.47                          
   3   MEAN B VALUE      (OVERALL, A**2) : 45.43                          
   3   OVERALL ANISOTROPIC B VALUE.                                       
   3    B11 (A**2) : NULL                                                 
   3    B22 (A**2) : NULL                                                 
   3    B33 (A**2) : NULL                                                 
   3    B12 (A**2) : NULL                                                 
   3    B13 (A**2) : NULL                                                 
   3    B23 (A**2) : NULL                                                 
   3                                                                      
   3  TWINNING INFORMATION.                                               
   3   FRACTION: NULL                                                     
   3   OPERATOR: NULL                                                     
   3                                                                      
   3  DEVIATIONS FROM IDEAL VALUES.                                       
   3                 RMSD          COUNT                                  
   3   BOND      :  0.006           4177                                  
   3   ANGLE     :  0.847           5650                                  
   3   CHIRALITY :  0.053            643                                  
   3   PLANARITY :  0.005            729                                  
   3   DIHEDRAL  : 15.049           2540                                  
   3                                                                      
   3  TLS DETAILS                                                         
   3   NUMBER OF TLS GROUPS  : 13                                         
   3   TLS GROUP : 1                                                      
   3    SELECTION: CHAIN 'A' AND (RESID 51 THROUGH 66 )                   
   3    ORIGIN FOR THE GROUP (A):  18.7560   2.7331 -13.5540              
   3    T TENSOR                                                          
   3      T11:   0.5072 T22:   0.3331                                     
   3      T33:   0.6666 T12:   0.0235                                     
   3      T13:   0.3352 T23:  -0.0282                                     
   3    L TENSOR                                                          
   3      L11:   2.0221 L22:   7.0128                                     
   3      L33:   2.9848 L12:  -1.0905                                     
   3      L13:   3.9968 L23:  -3.5608                                     
   3    S TENSOR                                                          
   3      S11:   0.4103 S12:   1.7872 S13:   0.2562                       
   3      S21:  -1.2784 S22:   0.2789 S23:  -0.5622                       
   3      S31:   0.1793 S32:   0.7408 S33:  -0.4212                       
   3   TLS GROUP : 2                                                      
   3    SELECTION: CHAIN 'A' AND (RESID 67 THROUGH 108 )                  
   3    ORIGIN FOR THE GROUP (A):   2.1309  -0.8414  -7.0914              
   3    T TENSOR                                                          
   3      T11:   0.2693 T22:   0.1488                                     
   3      T33:   0.3018 T12:  -0.0301                                     
   3      T13:   0.0592 T23:   0.0171                                     
   3    L TENSOR                                                          
   3      L11:   2.6833 L22:   2.2520                                     
   3      L33:   1.4465 L12:   0.1641                                     
   3      L13:  -0.4036 L23:   0.5166                                     
   3    S TENSOR                                                          
   3      S11:  -0.1082 S12:   0.2216 S13:   0.2450                       
   3      S21:  -0.4612 S22:   0.1493 S23:  -0.1943                       
   3      S31:  -0.0272 S32:   0.0578 S33:  -0.0098                       
   3   TLS GROUP : 3                                                      
   3    SELECTION: CHAIN 'A' AND (RESID 109 THROUGH 124 )                 
   3    ORIGIN FOR THE GROUP (A): -14.4090  -3.2020  15.2619              
   3    T TENSOR                                                          
   3      T11:   0.3124 T22:   0.3722                                     
   3      T33:   0.4320 T12:  -0.0557                                     
   3      T13:   0.1489 T23:  -0.0041                                     
   3    L TENSOR                                                          
   3      L11:   1.1020 L22:   4.1239                                     
   3      L33:   6.9795 L12:  -0.9059                                     
   3      L13:   2.6721 L23:  -3.5553                                     
   3    S TENSOR                                                          
   3      S11:   0.2611 S12:  -0.4940 S13:  -0.1227                       
   3      S21:   0.3917 S22:  -0.0094 S23:   1.1303                       
   3      S31:   0.1879 S32:  -0.4576 S33:  -0.2762                       
   3   TLS GROUP : 4                                                      
   3    SELECTION: CHAIN 'A' AND (RESID 125 THROUGH 165 )                 
   3    ORIGIN FOR THE GROUP (A):  -5.7322  -2.4038  14.6969              
   3    T TENSOR                                                          
   3      T11:   0.2815 T22:   0.3027                                     
   3      T33:   0.2852 T12:   0.0235                                     
   3      T13:   0.0766 T23:  -0.0011                                     
   3    L TENSOR                                                          
   3      L11:   2.2544 L22:   3.2876                                     
   3      L33:   4.0940 L12:   0.4353                                     
   3      L13:  -1.1943 L23:  -0.1309                                     
   3    S TENSOR                                                          
   3      S11:   0.0293 S12:  -0.4777 S13:   0.0167                       
   3      S21:   0.5174 S22:  -0.1408 S23:   0.2165                       
   3      S31:  -0.0300 S32:   0.0702 S33:   0.0951                       
   3   TLS GROUP : 5                                                      
   3    SELECTION: CHAIN 'A' AND (RESID 166 THROUGH 190 )                 
   3    ORIGIN FOR THE GROUP (A):  -6.5214 -11.1654  -2.6628              
   3    T TENSOR                                                          
   3      T11:   0.2418 T22:   0.1876                                     
   3      T33:   0.3048 T12:  -0.0397                                     
   3      T13:   0.0821 T23:  -0.0163                                     
   3    L TENSOR                                                          
   3      L11:   2.1219 L22:   3.1526                                     
   3      L33:   5.8207 L12:  -0.0833                                     
   3      L13:  -0.7283 L23:  -0.6867                                     
   3    S TENSOR                                                          
   3      S11:  -0.2868 S12:   0.1046 S13:  -0.2817                       
   3      S21:  -0.1377 S22:   0.0839 S23:   0.1966                       
   3      S31:   0.3061 S32:  -0.4637 S33:   0.2328                       
   3   TLS GROUP : 6                                                      
   3    SELECTION: CHAIN 'A' AND (RESID 191 THROUGH 234 )                 
   3    ORIGIN FOR THE GROUP (A):  -3.9619  -1.2346  -2.5147              
   3    T TENSOR                                                          
   3      T11:   0.1808 T22:   0.1201                                     
   3      T33:   0.2104 T12:  -0.0367                                     
   3      T13:   0.0304 T23:   0.0067                                     
   3    L TENSOR                                                          
   3      L11:   3.4663 L22:   2.6543                                     
   3      L33:   2.0692 L12:  -0.4746                                     
   3      L13:  -0.8590 L23:  -0.0021                                     
   3    S TENSOR                                                          
   3      S11:  -0.0845 S12:   0.0299 S13:   0.0454                       
   3      S21:   0.0597 S22:   0.0601 S23:   0.1281                       
   3      S31:   0.0037 S32:  -0.1186 S33:  -0.0001                       
   3   TLS GROUP : 7                                                      
   3    SELECTION: CHAIN 'A' AND (RESID 235 THROUGH 273 )                 
   3    ORIGIN FOR THE GROUP (A):   5.9873   7.1272   0.8891              
   3    T TENSOR                                                          
   3      T11:   0.2267 T22:   0.1495                                     
   3      T33:   0.3311 T12:   0.0009                                     
   3      T13:   0.0072 T23:  -0.0267                                     
   3    L TENSOR                                                          
   3      L11:   1.4090 L22:   3.1561                                     
   3      L33:   1.1003 L12:   0.3677                                     
   3      L13:  -0.2548 L23:  -0.1540                                     
   3    S TENSOR                                                          
   3      S11:   0.1227 S12:  -0.0755 S13:   0.3135                       
   3      S21:   0.0083 S22:   0.0207 S23:  -0.3045                       
   3      S31:  -0.1973 S32:   0.1195 S33:  -0.1514                       
   3   TLS GROUP : 8                                                      
   3    SELECTION: CHAIN 'A' AND (RESID 274 THROUGH 296 )                 
   3    ORIGIN FOR THE GROUP (A):   9.8067   1.3847  -3.0686              
   3    T TENSOR                                                          
   3      T11:   0.1510 T22:   0.2168                                     
   3      T33:   0.3108 T12:  -0.0418                                     
   3      T13:   0.0037 T23:  -0.0056                                     
   3    L TENSOR                                                          
   3      L11:   3.8221 L22:   4.9453                                     
   3      L33:   2.1954 L12:  -1.2302                                     
   3      L13:   0.2650 L23:  -0.0244                                     
   3    S TENSOR                                                          
   3      S11:   0.0982 S12:   0.0685 S13:   0.1570                       
   3      S21:  -0.2392 S22:   0.0210 S23:  -0.6158                       
   3      S31:   0.2162 S32:   0.2277 S33:  -0.1196                       
   3   TLS GROUP : 9                                                      
   3    SELECTION: CHAIN 'A' AND (RESID 297 THROUGH 311 )                 
   3    ORIGIN FOR THE GROUP (A):  13.3481   8.5989  -6.8075              
   3    T TENSOR                                                          
   3      T11:   0.3677 T22:   0.1373                                     
   3      T33:   0.5223 T12:  -0.0265                                     
   3      T13:   0.1403 T23:  -0.0295                                     
   3    L TENSOR                                                          
   3      L11:   4.2397 L22:   3.7524                                     
   3      L33:   3.7179 L12:  -1.8387                                     
   3      L13:   2.7179 L23:  -3.1079                                     
   3    S TENSOR                                                          
   3      S11:   0.0313 S12:   0.2807 S13:   0.2519                       
   3      S21:  -0.4672 S22:   0.0673 S23:  -0.5476                       
   3      S31:  -0.1630 S32:  -0.2508 S33:   0.0670                       
   3   TLS GROUP : 10                                                     
   3    SELECTION: CHAIN 'B' AND (RESID 51 THROUGH 76 )                   
   3    ORIGIN FOR THE GROUP (A):  24.5905 -27.1671 -51.0614              
   3    T TENSOR                                                          
   3      T11:   0.6856 T22:   0.4744                                     
   3      T33:   0.3365 T12:   0.0396                                     
   3      T13:   0.1169 T23:  -0.1213                                     
   3    L TENSOR                                                          
   3      L11:   5.3061 L22:   4.9189                                     
   3      L33:   5.2946 L12:   0.0034                                     
   3      L13:  -1.4753 L23:   1.7555                                     
   3    S TENSOR                                                          
   3      S11:  -0.3738 S12:   0.8287 S13:  -0.7290                       
   3      S21:  -0.9158 S22:   0.3237 S23:  -0.6182                       
   3      S31:   0.7433 S32:   0.6444 S33:  -0.0307                       
   3   TLS GROUP : 11                                                     
   3    SELECTION: CHAIN 'B' AND (RESID 77 THROUGH 234 )                  
   3    ORIGIN FOR THE GROUP (A):  16.5104 -15.3310 -28.9792              
   3    T TENSOR                                                          
   3      T11:   0.3850 T22:   0.2898                                     
   3      T33:   0.2624 T12:  -0.0133                                     
   3      T13:   0.0166 T23:  -0.0076                                     
   3    L TENSOR                                                          
   3      L11:   2.6227 L22:   2.5857                                     
   3      L33:   7.8378 L12:  -1.3659                                     
   3      L13:  -4.4571 L23:   2.7399                                     
   3    S TENSOR                                                          
   3      S11:   0.0717 S12:  -0.1434 S13:   0.2331                       
   3      S21:   0.0545 S22:   0.2245 S23:  -0.2019                       
   3      S31:  -0.0175 S32:   0.4808 S33:  -0.2407                       
   3   TLS GROUP : 12                                                     
   3    SELECTION: CHAIN 'B' AND (RESID 235 THROUGH 296 )                 
   3    ORIGIN FOR THE GROUP (A):  18.6528 -28.1655 -37.7386              
   3    T TENSOR                                                          
   3      T11:   0.7901 T22:   0.3888                                     
   3      T33:   0.3682 T12:   0.0340                                     
   3      T13:   0.1951 T23:  -0.0746                                     
   3    L TENSOR                                                          
   3      L11:   3.8260 L22:   3.8001                                     
   3      L33:   4.6245 L12:   0.2324                                     
   3      L13:  -2.6579 L23:   0.9211                                     
   3    S TENSOR                                                          
   3      S11:  -0.6298 S12:   0.8625 S13:  -1.0382                       
   3      S21:   0.4660 S22:  -0.1308 S23:   0.1427                       
   3      S31:   1.5525 S32:  -0.0002 S33:   0.3390                       
   3   TLS GROUP : 13                                                     
   3    SELECTION: CHAIN 'B' AND (RESID 297 THROUGH 311 )                 
   3    ORIGIN FOR THE GROUP (A):  22.9158 -32.9239 -44.4332              
   3    T TENSOR                                                          
   3      T11:   0.9603 T22:   0.4538                                     
   3      T33:   0.5532 T12:  -0.0334                                     
   3      T13:   0.2064 T23:  -0.0655                                     
   3    L TENSOR                                                          
   3      L11:   5.1461 L22:   7.2997                                     
   3      L33:   8.2905 L12:  -3.9063                                     
   3      L13:  -3.4649 L23:   0.4445                                     
   3    S TENSOR                                                          
   3      S11:  -0.0766 S12:   0.3528 S13:  -1.5477                       
   3      S21:  -0.3785 S22:  -0.2365 S23:  -0.3497                       
   3      S31:   2.1895 S32:  -0.1775 S33:   0.3706                       
   3                                                                      
   3  NCS DETAILS                                                         
   3   NUMBER OF NCS GROUPS : NULL                                        
   3                                                                      
   3  OTHER REFINEMENT REMARKS: NULL                                      
   4                                                                      
   4 6W33 COMPLIES WITH FORMAT V. 3.30, 13-JUL-11                         
 100                                                                      
 100 THIS ENTRY HAS BEEN PROCESSED BY RCSB ON 10-MAR-20.                  
 100 THE DEPOSITION ID IS D_1000247539.                                   
 200                                                                      
 200 EXPERIMENTAL DETAILS                                                 
 200  EXPERIMENT TYPE                : X-RAY DIFFRACTION                  
 200  DATE OF DATA COLLECTION        : 22-APR-19                          
 200  TEMPERATURE           (KELVIN) : 100                                
 200  PH                             : 6.5                                
 200  NUMBER OF CRYSTALS USED        : 1                                  
 200                                                                      
 200  SYNCHROTRON              (Y/N) : Y                                  
 200  RADIATION SOURCE               : APS                                
 200  BEAMLINE                       : 19-ID                              
 200  X-RAY GENERATOR MODEL          : NULL                               
 200  MONOCHROMATIC OR LAUE    (M/L) : M                                  
 200  WAVELENGTH OR RANGE        (A) : 0.97911                            
 200  MONOCHROMATOR                  : NULL                               
 200  OPTICS                         : NULL                               
 200                                                                      
 200  DETECTOR TYPE                  : PIXEL                              
 200  DETECTOR MANUFACTURER          : DECTRIS PILATUS3 X 6M              
 200  INTENSITY-INTEGRATION SOFTWARE : HKL-3000                           
 200  DATA SCALING SOFTWARE          : HKL-3000                           
 200                                                                      
 200  NUMBER OF UNIQUE REFLECTIONS   : 43737                              
 200  RESOLUTION RANGE HIGH      (A) : 1.850                              
 200  RESOLUTION RANGE LOW       (A) : 50.000                             
 200  REJECTION CRITERIA  (SIGMA(I)) : NULL                               
 200                                                                      
 200 OVERALL.                                                             
 200  COMPLETENESS FOR RANGE     (%) : 98.9                               
 200  DATA REDUNDANCY                : 6.000                              
 200  R MERGE                    (I) : 0.12800                            
 200  R SYM                      (I) : NULL                               
 200  <I/SIGMA(I)> FOR THE DATA SET  : 17.0000                            
 200                                                                      
 200 IN THE HIGHEST RESOLUTION SHELL.                                     
 200  HIGHEST RESOLUTION SHELL, RANGE HIGH (A) : 1.85                     
 200  HIGHEST RESOLUTION SHELL, RANGE LOW  (A) : 1.88                     
 200  COMPLETENESS FOR SHELL     (%) : 97.2                               
 200  DATA REDUNDANCY IN SHELL       : 5.30                               
 200  R MERGE FOR SHELL          (I) : 0.58100                            
 200  R SYM FOR SHELL            (I) : NULL                               
 200  <I/SIGMA(I)> FOR SHELL         : 1.920                              
 200                                                                      
 200 DIFFRACTION PROTOCOL: SINGLE WAVELENGTH                              
 200 METHOD USED TO DETERMINE THE STRUCTURE: MOLECULAR REPLACEMENT        
 200 SOFTWARE USED: HKL-3000, MOLREP                                      
 200 STARTING MODEL: PDBID 3QHY                                           
 200                                                                      
 200 REMARK: NULL                                                         
 280                                                                      
 280 CRYSTAL                                                              
 280 SOLVENT CONTENT, VS   (%): 42.48                                     
 280 MATTHEWS COEFFICIENT, VM (ANGSTROMS**3/DA): 2.14                     
 280                                                                      
 280 CRYSTALLIZATION CONDITIONS: 0.2 M MAGNESIUM CHLORIDE, 0.1 M MES PH   
 280  6.5, VAPOR DIFFUSION, SITTING DROP, TEMPERATURE 289K                
 290                                                                      
 290 CRYSTALLOGRAPHIC SYMMETRY                                            
 290 SYMMETRY OPERATORS FOR SPACE GROUP: P 1                              
 290                                                                      
 290      SYMOP   SYMMETRY                                                
 290     NNNMMM   OPERATOR                                                
 290       1555   X,Y,Z                                                   
 290                                                                      
 290     WHERE NNN -> OPERATOR NUMBER                                     
 290           MMM -> TRANSLATION VECTOR                                  
 290                                                                      
 290 CRYSTALLOGRAPHIC SYMMETRY TRANSFORMATIONS                            
 290 THE FOLLOWING TRANSFORMATIONS OPERATE ON THE ATOM/HETATM             
 290 RECORDS IN THIS ENTRY TO PRODUCE CRYSTALLOGRAPHICALLY                
 290 RELATED MOLECULES.                                                   
 290   SMTRY1   1  1.000000  0.000000  0.000000        0.00000            
 290   SMTRY2   1  0.000000  1.000000  0.000000        0.00000            
 290   SMTRY3   1  0.000000  0.000000  1.000000        0.00000            
 290                                                                      
 290 REMARK: NULL                                                         
 300                                                                      
 300 BIOMOLECULE: 1, 2                                                    
 300 SEE REMARK 350 FOR THE AUTHOR PROVIDED AND/OR PROGRAM                
 300 GENERATED ASSEMBLY INFORMATION FOR THE STRUCTURE IN                  
 300 THIS ENTRY. THE REMARK MAY ALSO PROVIDE INFORMATION ON               
 300 BURIED SURFACE AREA.                                                 
 350                                                                      
 350 COORDINATES FOR A COMPLETE MULTIMER REPRESENTING THE KNOWN           
 350 BIOLOGICALLY SIGNIFICANT OLIGOMERIZATION STATE OF THE                
 350 MOLECULE CAN BE GENERATED BY APPLYING BIOMT TRANSFORMATIONS          
 350 GIVEN BELOW.  BOTH NON-CRYSTALLOGRAPHIC AND                          
 350 CRYSTALLOGRAPHIC OPERATIONS ARE GIVEN.                               
 350                                                                      
 350 BIOMOLECULE: 1                                                       
 350 AUTHOR DETERMINED BIOLOGICAL UNIT: MONOMERIC                         
 350 SOFTWARE DETERMINED QUATERNARY STRUCTURE: MONOMERIC                  
 350 SOFTWARE USED: PISA                                                  
 350 APPLY THE FOLLOWING TO CHAINS: A                                     
 350   BIOMT1   1  1.000000  0.000000  0.000000        0.00000            
 350   BIOMT2   1  0.000000  1.000000  0.000000        0.00000            
 350   BIOMT3   1  0.000000  0.000000  1.000000        0.00000            
 350                                                                      
 350 BIOMOLECULE: 2                                                       
 350 AUTHOR DETERMINED BIOLOGICAL UNIT: MONOMERIC                         
 350 SOFTWARE DETERMINED QUATERNARY STRUCTURE: MONOMERIC                  
 350 SOFTWARE USED: PISA                                                  
 350 APPLY THE FOLLOWING TO CHAINS: B                                     
 350   BIOMT1   1  1.000000  0.000000  0.000000        0.00000            
 350   BIOMT2   1  0.000000  1.000000  0.000000        0.00000            
 350   BIOMT3   1  0.000000  0.000000  1.000000        0.00000            
 465                                                                      
 465 MISSING RESIDUES                                                     
 465 THE FOLLOWING RESIDUES WERE NOT LOCATED IN THE                       
 465 EXPERIMENT. (M=MODEL NUMBER; RES=RESIDUE NAME; C=CHAIN               
 465 IDENTIFIER; SSSEQ=SEQUENCE NUMBER; I=INSERTION CODE.)                
 465                                                                      
 465   M RES C SSSEQI                                                     
 465     SER A    29                                                      
 465     ASN A    30                                                      
 465     ALA A    31                                                      
 465     PHE A    32                                                      
 465     THR A    33                                                      
 465     GLY A    34                                                      
 465     GLY A    35                                                      
 465     ALA A    36                                                      
 465     LEU A    37                                                      
 465     GLN A    38                                                      
 465     VAL A    39                                                      
 465     GLU A    40                                                      
 465     ALA A    41                                                      
 465     LYS A    42                                                      
 465     GLU A    43                                                      
 465     LYS A    44                                                      
 465     THR A    45                                                      
 465     GLY A    46                                                      
 465     GLN A    47                                                      
 465     VAL A    48                                                      
 465     LYS A    49                                                      
 465     HIS A    50                                                      
 465     LYS A   312                                                      
 465     SER B    29                                                      
 465     ASN B    30                                                      
 465     ALA B    31                                                      
 465     PHE B    32                                                      
 465     THR B    33                                                      
 465     GLY B    34                                                      
 465     GLY B    35                                                      
 465     ALA B    36                                                      
 465     LEU B    37                                                      
 465     GLN B    38                                                      
 465     VAL B    39                                                      
 465     GLU B    40                                                      
 465     ALA B    41                                                      
 465     LYS B    42                                                      
 465     GLU B    43                                                      
 465     LYS B    44                                                      
 465     THR B    45                                                      
 465     GLY B    46                                                      
 465     GLN B    47                                                      
 465     VAL B    48                                                      
 465     LYS B    49                                                      
 465     HIS B    50                                                      
 465     LYS B   312                                                      
 470                                                                      
 470 MISSING ATOM                                                         
 470 THE FOLLOWING RESIDUES HAVE MISSING ATOMS (M=MODEL NUMBER;           
 470 RES=RESIDUE NAME; C=CHAIN IDENTIFIER; SSEQ=SEQUENCE NUMBER;          
 470 I=INSERTION CODE):                                                   
 470   M RES CSSEQI  ATOMS                                                
 470     LYS A  51    CG   CD   CE   NZ                                   
 470     LYS B  51    CG   CD   CE   NZ                                   
 500                                                                      
 500 GEOMETRY AND STEREOCHEMISTRY                                         
 500 SUBTOPIC: TORSION ANGLES                                             
 500                                                                      
 500 TORSION ANGLES OUTSIDE THE EXPECTED RAMACHANDRAN REGIONS:            
 500 (M=MODEL NUMBER; RES=RESIDUE NAME; C=CHAIN IDENTIFIER;               
 500 SSEQ=SEQUENCE NUMBER; I=INSERTION CODE).                             
 500                                                                      
 500 STANDARD TABLE:                                                      
 500 FORMAT:(10X,I3,1X,A3,1X,A1,I4,A1,4X,F7.2,3X,F7.2)                    
 500                                                                      
 500 EXPECTED VALUES: GJ KLEYWEGT AND TA JONES (1996). PHI/PSI-           
 500 CHOLOGY: RAMACHANDRAN REVISITED. STRUCTURE 4, 1395 - 1400            
 500                                                                      
 500  M RES CSSEQI        PSI       PHI                                   
 500    ASN A  80       15.37     55.79                                   
 500    ALA A  94     -143.31     51.83                                   
 500    TYR A 128       75.55     59.23                                   
 500    ASP A 186      -37.95   -135.42                                   
 500    LEU A 243     -119.50   -111.07                                   
 500    ASP B  67       62.81     33.17                                   
 500    ALA B  94     -141.93     52.69                                   
 500    TYR B 128       71.45     53.78                                   
 500    ASP B 137      -50.46     73.59                                   
 500    ASP B 186      -35.39   -137.22                                   
 500    ASN B 220       41.28   -106.06                                   
 500    LEU B 243     -119.30   -121.61                                   
 500                                                                      
 500 REMARK: NULL                                                         
 800                                                                      
 800 SITE                                                                 
 800 SITE_IDENTIFIER: AC1                                                 
 800 EVIDENCE_CODE: SOFTWARE                                              
 800 SITE_DESCRIPTION: binding site for residue CL A 401                  
 800                                                                      
 800 SITE_IDENTIFIER: AC2                                                 
 800 EVIDENCE_CODE: SOFTWARE                                              
 800 SITE_DESCRIPTION: binding site for residue SO4 A 402                 
 800                                                                      
 800 SITE_IDENTIFIER: AC3                                                 
 800 EVIDENCE_CODE: SOFTWARE                                              
 800 SITE_DESCRIPTION: binding site for residue EDO A 403                 
 800                                                                      
 800 SITE_IDENTIFIER: AC4                                                 
 800 EVIDENCE_CODE: SOFTWARE                                              
 800 SITE_DESCRIPTION: binding site for residue GOL A 404                 
 800                                                                      
 800 SITE_IDENTIFIER: AC5                                                 
 800 EVIDENCE_CODE: SOFTWARE                                              
 800 SITE_DESCRIPTION: binding site for residue MES A 405                 
 800                                                                      
 800 SITE_IDENTIFIER: AC6                                                 
 800 EVIDENCE_CODE: SOFTWARE                                              
 800 SITE_DESCRIPTION: binding site for residue EDO A 406                 
 800                                                                      
 800 SITE_IDENTIFIER: AC7                                                 
 800 EVIDENCE_CODE: SOFTWARE                                              
 800 SITE_DESCRIPTION: binding site for residue EDO A 407                 
 800                                                                      
 800 SITE_IDENTIFIER: AC8                                                 
 800 EVIDENCE_CODE: SOFTWARE                                              
 800 SITE_DESCRIPTION: binding site for residue GOL A 408                 
 800                                                                      
 800 SITE_IDENTIFIER: AC9                                                 
 800 EVIDENCE_CODE: SOFTWARE                                              
 800 SITE_DESCRIPTION: binding site for residue EDO A 409                 
 800                                                                      
 800 SITE_IDENTIFIER: AD1                                                 
 800 EVIDENCE_CODE: SOFTWARE                                              
 800 SITE_DESCRIPTION: binding site for residue MES B 401                 
 900                                                                      
 900 RELATED ENTRIES                                                      
 900 RELATED ID: IDP97250   RELATED DB: TARGETTRACK                       

>  <DBREF1>  (1) 
 6W33 A   33   312  UNP                  A0A5B7VP54_BACCR                 
 6W33 B   33   312  UNP                  A0A5B7VP54_BACCR                 

>  <DBREF2>  (1) 
 6W33 A     A0A5B7VP54                         29         308             
 6W33 B     A0A5B7VP54                         29         308             

>  <SEQADV>  (1) 
 6W33 SER A   29  UNP  A0A5B7VP5           EXPRESSION TAG                 
 6W33 ASN A   30  UNP  A0A5B7VP5           EXPRESSION TAG                 
 6W33 ALA A   31  UNP  A0A5B7VP5           EXPRESSION TAG                 
 6W33 PHE A   32  UNP  A0A5B7VP5           EXPRESSION TAG                 
 6W33 THR A  278  UNP  A0A5B7VP5 ALA   274 ENGINEERED MUTATION            
 6W33 SER B   29  UNP  A0A5B7VP5           EXPRESSION TAG                 
 6W33 ASN B   30  UNP  A0A5B7VP5           EXPRESSION TAG                 
 6W33 ALA B   31  UNP  A0A5B7VP5           EXPRESSION TAG                 
 6W33 PHE B   32  UNP  A0A5B7VP5           EXPRESSION TAG                 
 6W33 THR B  278  UNP  A0A5B7VP5 ALA   274 ENGINEERED MUTATION            

>  <SEQRES>  (1) 
   1 A  284  SER ASN ALA PHE THR GLY GLY ALA LEU GLN VAL GLU ALA          
   2 A  284  LYS GLU LYS THR GLY GLN VAL LYS HIS LYS ASN GLN ALA          
   3 A  284  THR HIS LYS GLU PHE SER GLN LEU GLU LYS LYS PHE ASP          
   4 A  284  ALA ARG LEU GLY VAL TYR ALA ILE ASP THR GLY THR ASN          
   5 A  284  GLN THR ILE SER TYR ARG SER ASN GLU ARG PHE ALA PHE          
   6 A  284  ALA 1X6 THR TYR LYS ALA LEU ALA ALA GLY VAL LEU LEU          
   7 A  284  GLN GLN ASN SER ILE ASP SER LEU ASN GLU VAL ILE THR          
   8 A  284  TYR THR LYS GLU ASP LEU VAL ASP TYR SER PRO VAL THR          
   9 A  284  GLU LYS HIS VAL ASP THR GLY MET LYS LEU GLY GLU ILE          
  10 A  284  ALA GLU ALA ALA VAL ARG SER SER ASP ASN THR ALA GLY          
  11 A  284  ASN ILE LEU PHE ASN LYS ILE GLY GLY PRO LYS GLY TYR          
  12 A  284  GLU LYS ALA LEU ARG HIS MET GLY ASP ARG ILE THR MET          
  13 A  284  SER ASP ARG PHE GLU THR GLU LEU ASN GLU ALA ILE PRO          
  14 A  284  GLY ASP ILE ARG ASP THR SER THR ALA LYS ALA ILE ALA          
  15 A  284  THR ASN LEU LYS ALA PHE THR VAL GLY ASN ALA LEU PRO          
  16 A  284  ALA GLU LYS ARG LYS ILE LEU THR GLU TRP MET LYS GLY          
  17 A  284  ASN ALA THR GLY ASP LYS LEU ILE ARG ALA GLY VAL PRO          
  18 A  284  THR ASP TRP VAL VAL GLY ASP LYS SER GLY ALA GLY SER          
  19 A  284  TYR GLY THR ARG ASN ASP ILE ALA ILE VAL TRP PRO PRO          
  20 A  284  ASN ARG THR PRO ILE ILE ILE ALA ILE LEU SER SER LYS          
  21 A  284  ASP GLU LYS GLU ALA THR TYR ASP ASN GLN LEU ILE ALA          
  22 A  284  GLU ALA THR GLU VAL ILE VAL LYS ALA LEU LYS                  
   1 B  284  SER ASN ALA PHE THR GLY GLY ALA LEU GLN VAL GLU ALA          
   2 B  284  LYS GLU LYS THR GLY GLN VAL LYS HIS LYS ASN GLN ALA          
   3 B  284  THR HIS LYS GLU PHE SER GLN LEU GLU LYS LYS PHE ASP          
   4 B  284  ALA ARG LEU GLY VAL TYR ALA ILE ASP THR GLY THR ASN          
   5 B  284  GLN THR ILE SER TYR ARG SER ASN GLU ARG PHE ALA PHE          
   6 B  284  ALA 1X6 THR TYR LYS ALA LEU ALA ALA GLY VAL LEU LEU          
   7 B  284  GLN GLN ASN SER ILE ASP SER LEU ASN GLU VAL ILE THR          
   8 B  284  TYR THR LYS GLU ASP LEU VAL ASP TYR SER PRO VAL THR          
   9 B  284  GLU LYS HIS VAL ASP THR GLY MET LYS LEU GLY GLU ILE          
  10 B  284  ALA GLU ALA ALA VAL ARG SER SER ASP ASN THR ALA GLY          
  11 B  284  ASN ILE LEU PHE ASN LYS ILE GLY GLY PRO LYS GLY TYR          
  12 B  284  GLU LYS ALA LEU ARG HIS MET GLY ASP ARG ILE THR MET          
  13 B  284  SER ASP ARG PHE GLU THR GLU LEU ASN GLU ALA ILE PRO          
  14 B  284  GLY ASP ILE ARG ASP THR SER THR ALA LYS ALA ILE ALA          
  15 B  284  THR ASN LEU LYS ALA PHE THR VAL GLY ASN ALA LEU PRO          
  16 B  284  ALA GLU LYS ARG LYS ILE LEU THR GLU TRP MET LYS GLY          
  17 B  284  ASN ALA THR GLY ASP LYS LEU ILE ARG ALA GLY VAL PRO          
  18 B  284  THR ASP TRP VAL VAL GLY ASP LYS SER GLY ALA GLY SER          
  19 B  284  TYR GLY THR ARG ASN ASP ILE ALA ILE VAL TRP PRO PRO          
  20 B  284  ASN ARG THR PRO ILE ILE ILE ALA ILE LEU SER SER LYS          
  21 B  284  ASP GLU LYS GLU ALA THR TYR ASP ASN GLN LEU ILE ALA          
  22 B  284  GLU ALA THR GLU VAL ILE VAL LYS ALA LEU LYS                  

>  <MODRES>  (1) 
 6W33 1X6 A   95  SER  MODIFIED RESIDUE                                   
 6W33 1X6 B   95  SER  MODIFIED RESIDUE                                   

>  <HET>  (1) 
 1X6  A  95      11                                                       
 1X6  B  95      11                                                       
  CL  A 401       1                                                       
 SO4  A 402       5                                                       
 EDO  A 403       4                                                       
 GOL  A 404       6                                                       
 MES  A 405      12                                                       
 EDO  A 406       4                                                       
 EDO  A 407       4                                                       
 GOL  A 408       6                                                       
 EDO  A 409       4                                                       
 MES  B 401      12                                                       

>  <HETNAM>  (1) 
     1X6 O-[(2E)-3-AMINOPROP-2-ENOYL]-L-SERINE                            
      CL CHLORIDE ION                                                     
     SO4 SULFATE ION                                                      
     EDO 1,2-ETHANEDIOL                                                   
     GOL GLYCEROL                                                         
     MES 2-(N-MORPHOLINO)-ETHANESULFONIC ACID                             

>  <HETSYN>  (1) 
     EDO ETHYLENE GLYCOL                                                  
     GOL GLYCERIN; PROPANE-1,2,3-TRIOL                                    

>  <FORMUL>  (1) 
   1  1X6    2(C6 H10 N2 O4)                                              
   3   CL    CL 1-                                                        
   4  SO4    O4 S 2-                                                      
   5  EDO    4(C2 H6 O2)                                                  
   6  GOL    2(C3 H8 O3)                                                  
   7  MES    2(C6 H13 N O4 S)                                             
  13  HOH   *195(H2 O)                                                    

>  <HELIX>  (1) 
   1 AA1 LYS A   51  ASP A   67  1                                  17    
   2 AA2 THR A   96  ASN A  109  1                                  14    
   3 AA3 ILE A  111  ASN A  115  5                                   5    
   4 AA4 THR A  121  LEU A  125  5                                   5    
   5 AA5 VAL A  131  HIS A  135  5                                   5    
   6 AA6 LEU A  142  SER A  153  1                                  12    
   7 AA7 ASP A  154  ILE A  165  1                                  12    
   8 AA8 GLY A  166  MET A  178  1                                  13    
   9 AA9 THR A  190  GLU A  194  5                                   5    
  10 AB1 THR A  205  VAL A  218  1                                  14    
  11 AB2 PRO A  223  LYS A  235  1                                  13    
  12 AB3 ASN A  237  ASP A  241  5                                   5    
  13 AB4 LEU A  243  VAL A  248  5                                   6    
  14 AB5 ASP A  296  LEU A  311  1                                  16    
  15 AB6 ASN B   52  ASP B   67  1                                  16    
  16 AB7 THR B   96  ASN B  109  1                                  14    
  17 AB8 ILE B  111  ASN B  115  5                                   5    
  18 AB9 THR B  121  LEU B  125  5                                   5    
  19 AC1 VAL B  131  VAL B  136  5                                   6    
  20 AC2 LEU B  142  SER B  153  1                                  12    
  21 AC3 ASP B  154  ILE B  165  1                                  12    
  22 AC4 GLY B  166  HIS B  177  1                                  12    
  23 AC5 THR B  190  GLU B  194  5                                   5    
  24 AC6 THR B  205  VAL B  218  1                                  14    
  25 AC7 PRO B  223  LYS B  235  1                                  13    
  26 AC8 ASN B  237  ASP B  241  5                                   5    
  27 AC9 LEU B  243  VAL B  248  5                                   6    
  28 AD1 ASP B  296  LEU B  311  1                                  16    

>  <SHEET>  (1) 
   1 AA1 5 THR A  82  TYR A  85  0                                        
   2 AA1 5 ARG A  69  ASP A  76 -1  N  VAL A  72   O  TYR A  85           
   3 AA1 5 ILE A 280  SER A 287 -1  O  LEU A 285   N  GLY A  71           
   4 AA1 5 THR A 265  TRP A 273 -1  N  ALA A 270   O  ILE A 282           
   5 AA1 5 VAL A 253  GLY A 261 -1  N  VAL A 253   O  TRP A 273           
   1 AA2 2 PHE A  91  ALA A  92  0                                        
   2 AA2 2 THR A 203  SER A 204 -1  O  SER A 204   N  PHE A  91           
   1 AA3 2 VAL A 117  ILE A 118  0                                        
   2 AA3 2 MET A 140  LYS A 141 -1  O  MET A 140   N  ILE A 118           
   1 AA4 5 THR B  82  TYR B  85  0                                        
   2 AA4 5 ARG B  69  ASP B  76 -1  N  VAL B  72   O  TYR B  85           
   3 AA4 5 ILE B 280  SER B 287 -1  O  LEU B 285   N  GLY B  71           
   4 AA4 5 ARG B 266  TRP B 273 -1  N  ALA B 270   O  ILE B 282           
   5 AA4 5 VAL B 253  ALA B 260 -1  N  GLY B 255   O  ILE B 271           
   1 AA5 2 PHE B  91  ALA B  92  0                                        
   2 AA5 2 THR B 203  SER B 204 -1  O  SER B 204   N  PHE B  91           
   1 AA6 2 VAL B 117  ILE B 118  0                                        
   2 AA6 2 MET B 140  LYS B 141 -1  O  MET B 140   N  ILE B 118           

>  <LINK>  (1) 
       C   ALA A  94                 N   1X6 A  95     1555   1555  1.32  
       C   1X6 A  95                 N   THR A  96     1555   1555  1.33  
       C   ALA B  94                 N   1X6 B  95     1555   1555  1.33  
       C   1X6 B  95                 N   THR B  96     1555   1555  1.33  

>  <CISPEP>  (1) 
   1 GLU A  189    THR A  190          0         4.24                     
   2 GLU B  189    THR B  190          0        -1.54                     

>  <SITE>  (1) 
   1 AC1  5 THR A 121  LYS A 122  SER B  87  ASN B  88                    
   2 AC1  5 HOH B 521                                                     
   1 AC2  4 GLU A 172  ASP A 186  ASN A 276  HOH A 562                    
   1 AC3  7 ASP A  67  LYS A 173  HIS A 177  ASP A 289                    
   2 AC3  7 GLU A 290  HOH A 559  HOH A 634                               
   1 AC4  4 GLU A 225  GLU A 302  GLU A 305  HOH A 520                    
   1 AC5  7 1X6 A  95  SER A 153  THR A 239  SER A 258                    
   2 AC5  7 GLY A 259  ARG A 266  TYR A 295                               
   1 AC6  4 GLY A 198  PRO A 249  THR A 250  HOH A 522                    
   1 AC7  3 TYR A  85  ARG A  86  LYS B 164                               
   1 AC8  7 ALA A 195  ILE A 196  PRO A 197  GLY A 198                    
   2 AC8  7 ASP A 199  THR A 203  HOH A 533                               
   1 AC9  6 SER A 110  ASP A 112  TYR A 295  ASP A 296                    
   2 AC9  6 ASN A 297  HOH A 569                                          
   1 AD1  7 1X6 B  95  SER B 153  LYS B 257  SER B 258                    
   2 AD1  7 GLY B 259  ALA B 260  ARG B 266                               

>  <ORIGX1>  (1) 
      1.000000  0.000000  0.000000        0.00000                         

>  <ORIGX2>  (1) 
      0.000000  1.000000  0.000000        0.00000                         

>  <ORIGX3>  (1) 
      0.000000  0.000000  1.000000        0.00000                         

>  <SCALE1>  (1) 
      0.023404 -0.001359 -0.000603        0.00000                         

>  <SCALE2>  (1) 
      0.000000  0.022952 -0.001938        0.00000                         

>  <SCALE3>  (1) 
      0.000000  0.000000  0.013867        0.00000                         

>  <ANISOU>  (1) 
  364  N   1X6 A  95     2492   2265   3461    259    255   -125       N  
  365  CA  1X6 A  95     3075   2900   4025    229    225   -152       C  
  366  C   1X6 A  95     2821   2560   3821    156    244   -167       C  
  367  O   1X6 A  95     2522   2301   3548    138    222   -195       O  
  368  CB  1X6 A  95     3204   3224   4249    260    168   -242       C  
  369  OG  1X6 A  95     3395   3527   4365    334    125   -225       O  
  370  C7  1X6 A  95     3398   3590   4428    394    101   -218       C  
  371  O8  1X6 A  95     3133   3282   4283    383    133   -231       O  
  372  C6  1X6 A  95     4732   5042   5646    481     35   -175       C  
  373  C5  1X6 A  95     5740   6277   6793    536    -51   -264       C  
  374  N4  1X6 A  95     5713   6272   6842    608    -74   -222       N  
  809  N   SER A 153     2418   2886   2823     43    274    -23       N  
  810  CA  SER A 153     2919   3515   3448    148    271     96       C  
  811  C   SER A 153     2711   3395   3160    201    263    162       C  
  812  O   SER A 153     3447   4283   3957    272    237    275       O  
  813  CB  SER A 153     2976   3778   3647    126    232    157       C  
  814  OG  SER A 153     3679   4456   4462    236    284    233       O  

>  <MASTER>  (1) 
      530    0   12   28   18    0   16    6 4271    2   83   44          

$$$$
