start_structures/Ligand_Substrate/Ligand_Complex_Stripped/X57_6VHS.pdb
     RDKit          3D

 25 25  0  0  1  0  0  0  0  0999 V2000
   48.7969   51.8770   46.3359 N   0  0  0  0  0  0  0  0  0  0  0  0
   47.4474   51.3815   46.5444 C   0  0  2  0  0  0  0  0  0  0  0  0
   47.4044   49.8864   46.4403 C   0  0  0  0  0  0  0  0  0  0  0  0
   46.4741   49.2680   46.9365 O   0  0  0  0  0  0  0  0  0  0  0  0
   46.5149   52.0025   45.5112 C   0  0  0  0  0  0  0  0  0  0  0  0
   46.1624   53.3346   45.8717 O   0  0  0  0  0  0  0  0  0  0  0  0
   42.7966   53.7421   49.4361 O   0  0  0  0  0  0  0  0  0  0  0  0
   43.7865   54.5201   49.3841 C   0  0  0  0  0  0  0  0  0  0  0  0
   44.7492   54.5040   50.4311 N   0  0  0  0  0  0  0  0  0  0  0  0
   43.9816   55.4397   48.2148 C   0  0  2  0  0  0  0  0  0  0  0  0
   42.7092   55.8568   47.5325 C   0  0  0  0  0  0  0  0  0  0  0  0
   42.7299   56.3450   46.2802 C   0  0  0  0  0  0  0  0  0  0  0  0
   41.4312   56.7127   45.6457 C   0  0  0  0  0  0  0  0  0  0  0  0
   43.9977   56.3625   45.4379 C   0  0  2  0  0  0  0  0  0  0  0  0
   45.2703   56.0137   46.2283 C   0  0  0  0  0  0  0  0  0  0  0  0
   44.9639   54.9935   47.2205 N   0  0  0  0  0  0  0  0  0  0  0  0
   45.2497   53.6203   46.8928 C   0  0  0  0  0  0  0  0  0  0  0  0
   44.6785   52.6774   47.5056 O   0  0  0  0  0  0  0  0  0  0  0  0
   44.1613   57.6597   44.7994 N   0  0  0  0  0  0  0  0  0  0  0  0
   44.8168   57.4483   43.6324 O   0  0  0  0  0  0  0  0  0  0  0  0
   45.7260   58.5034   43.5405 C   0  0  2  0  0  0  0  0  0  0  0  0
   45.5043   59.2056   42.3704 F   0  0  0  0  0  0  0  0  0  0  0  0
   47.1174   57.9713   43.5542 C   0  0  0  0  0  0  0  0  0  0  0  0
   47.8690   58.2096   44.5344 O   0  0  0  0  0  0  0  0  0  0  0  0
   47.5810   57.1958   42.4991 O   0  0  0  0  0  0  0  0  0  0  0  0
  2  5  1  0
  2  1  1  6
  3  2  1  0
  4  3  2  0
  5  6  1  0
  6 17  1  0
  7  8  2  0
  8  9  1  0
 10  8  1  1
 10 11  1  0
 10 16  1  0
 11 12  2  0
 12 13  1  0
 12 14  1  0
 14 15  1  0
 14 19  1  1
 15 16  1  0
 16 17  1  0
 17 18  2  0
 19 20  1  0
 20 21  1  0
 21 22  1  6
 21 23  1  0
 23 24  2  0
 23 25  1  0
M  END
>  <HEADER>  (1) 
    HYDROLASE                               10-JAN-20   6VHS              

>  <TITLE>  (1) 
    CRYSTAL STRUCTURE OF CTX-M-14 IN COMPLEX WITH BETA-LACTAMASE INHIBITOR
   2 ETX1317                                                              

>  <COMPND>  (1) 
    MOL_ID: 1;                                                            
   2 MOLECULE: BETA-LACTAMASE;                                            
   3 CHAIN: A, B;                                                         
   4 EC: 3.5.2.6;                                                         
   5 ENGINEERED: YES                                                      

>  <SOURCE>  (1) 
    MOL_ID: 1;                                                            
   2 ORGANISM_SCIENTIFIC: ESCHERICHIA COLI;                               
   3 ORGANISM_TAXID: 562;                                                 
   4 GENE: BLACTX-M-14;                                                   
   5 EXPRESSION_SYSTEM: ESCHERICHIA COLI BL21(DE3);                       
   6 EXPRESSION_SYSTEM_TAXID: 469008                                      

>  <KEYWDS>  (1) 
    CTX-M-14, BETA-LACTAMASE, B-LACTAMASE, ETX3517, ETX-3517, AVIBACTAM,  
   2 DBO, HYDROLASE                                                       

>  <EXPDTA>  (1) 
    X-RAY DIFFRACTION                                                     

>  <AUTHOR>  (1) 
    M.D.SACCO,Y.CHEN                                                      

>  <REVDAT>  (1) 
   3   25-NOV-20 6VHS    1       JRNL                                     
   2   16-SEP-20 6VHS    1       TITLE                                    
   1   26-AUG-20 6VHS    0                                                

>  <JRNL>  (1) 
      AUTH   T.F.DURAND-REVILLE,J.COMITA-PREVOIR,J.ZHANG,X.WU,            
      AUTH 2 T.L.MAY-DRACKA,J.A.C.ROMERO,F.WU,A.CHEN,A.B.SHAPIRO,         
      AUTH 3 N.M.CARTER,S.M.MCLEOD,R.A.GIACOBBE,J.C.VERHEIJEN,S.D.LAHIRI, 
      AUTH 4 M.D.SACCO,Y.CHEN,J.P.O'DONNELL,A.A.MILLER,J.P.MUELLER,       
      AUTH 5 R.A.TOMMASI                                                  
      TITL   DISCOVERY OF AN ORALLY AVAILABLE DIAZABICYCLOOCTANE          
      TITL 2 INHIBITOR (ETX0282) OF CLASS A, C, AND D SERINE              
      TITL 3 BETA-LACTAMASES.                                             
      REF    J.MED.CHEM.                   V.  63 12511 2020              
      REFN                   ISSN 0022-2623                               
      PMID   32658473                                                     
      DOI    10.1021/ACS.JMEDCHEM.0C00579                                 

>  <REMARK>  (1) 
   2                                                                      
   2 RESOLUTION.    1.28 ANGSTROMS.                                       
   3                                                                      
   3 REFINEMENT.                                                          
   3   PROGRAM     : REFMAC 5.8.0258                                      
   3   AUTHORS     : MURSHUDOV,SKUBAK,LEBEDEV,PANNU,STEINER,              
   3               : NICHOLLS,WINN,LONG,VAGIN                             
   3                                                                      
   3    REFINEMENT TARGET : MAXIMUM LIKELIHOOD                            
   3                                                                      
   3  DATA USED IN REFINEMENT.                                            
   3   RESOLUTION RANGE HIGH (ANGSTROMS) : 1.28                           
   3   RESOLUTION RANGE LOW  (ANGSTROMS) : 53.52                          
   3   DATA CUTOFF            (SIGMA(F)) : 0.000                          
   3   COMPLETENESS FOR RANGE        (%) : 96.8                           
   3   NUMBER OF REFLECTIONS             : 106217                         
   3                                                                      
   3  FIT TO DATA USED IN REFINEMENT.                                     
   3   CROSS-VALIDATION METHOD          : THROUGHOUT                      
   3   FREE R VALUE TEST SET SELECTION  : RANDOM                          
   3   R VALUE     (WORKING + TEST SET) : 0.130                           
   3   R VALUE            (WORKING SET) : 0.129                           
   3   FREE R VALUE                     : 0.149                           
   3   FREE R VALUE TEST SET SIZE   (%) : 5.000                           
   3   FREE R VALUE TEST SET COUNT      : 5618                            
   3                                                                      
   3  FIT IN THE HIGHEST RESOLUTION BIN.                                  
   3   TOTAL NUMBER OF BINS USED           : NULL                         
   3   BIN RESOLUTION RANGE HIGH       (A) : 1.28                         
   3   BIN RESOLUTION RANGE LOW        (A) : 1.31                         
   3   REFLECTION IN BIN     (WORKING SET) : 7862                         
   3   BIN COMPLETENESS (WORKING+TEST) (%) : 96.96                        
   3   BIN R VALUE           (WORKING SET) : 0.1430                       
   3   BIN FREE R VALUE SET COUNT          : 407                          
   3   BIN FREE R VALUE                    : 0.1660                       
   3                                                                      
   3  NUMBER OF NON-HYDROGEN ATOMS USED IN REFINEMENT.                    
   3   PROTEIN ATOMS            : 3920                                    
   3   NUCLEIC ACID ATOMS       : 0                                       
   3   HETEROGEN ATOMS          : 63                                      
   3   SOLVENT ATOMS            : 921                                     
   3                                                                      
   3  B VALUES.                                                           
   3   FROM WILSON PLOT           (A**2) : NULL                           
   3   MEAN B VALUE      (OVERALL, A**2) : 9.36                           
   3   OVERALL ANISOTROPIC B VALUE.                                       
   3    B11 (A**2) : -0.03000                                             
   3    B22 (A**2) : -0.09000                                             
   3    B33 (A**2) : 0.05000                                              
   3    B12 (A**2) : 0.00000                                              
   3    B13 (A**2) : 0.16000                                              
   3    B23 (A**2) : 0.00000                                              
   3                                                                      
   3  ESTIMATED OVERALL COORDINATE ERROR.                                 
   3   ESU BASED ON R VALUE                            (A): 0.041         
   3   ESU BASED ON FREE R VALUE                       (A): 0.043         
   3   ESU BASED ON MAXIMUM LIKELIHOOD                 (A): 0.024         
   3   ESU FOR B VALUES BASED ON MAXIMUM LIKELIHOOD (A**2): 0.538         
   3                                                                      
   3 CORRELATION COEFFICIENTS.                                            
   3   CORRELATION COEFFICIENT FO-FC      : 0.975                         
   3   CORRELATION COEFFICIENT FO-FC FREE : 0.968                         
   3                                                                      
   3  RMS DEVIATIONS FROM IDEAL VALUES        COUNT    RMS    WEIGHT      
   3   BOND LENGTHS REFINED ATOMS        (A):  4239 ; 0.017 ; 0.013       
   3   BOND LENGTHS OTHERS               (A):  3962 ; 0.003 ; 0.017       
   3   BOND ANGLES REFINED ATOMS   (DEGREES):  5798 ; 2.051 ; 1.665       
   3   BOND ANGLES OTHERS          (DEGREES):  9194 ; 1.716 ; 1.582       
   3   TORSION ANGLES, PERIOD 1    (DEGREES):   561 ; 6.644 ; 5.000       
   3   TORSION ANGLES, PERIOD 2    (DEGREES):   206 ;36.034 ;22.184       
   3   TORSION ANGLES, PERIOD 3    (DEGREES):   698 ;12.021 ;15.000       
   3   TORSION ANGLES, PERIOD 4    (DEGREES):    32 ;12.925 ;15.000       
   3   CHIRAL-CENTER RESTRAINTS       (A**3):   589 ; 0.115 ; 0.200       
   3   GENERAL PLANES REFINED ATOMS      (A):  4871 ; 0.012 ; 0.020       
   3   GENERAL PLANES OTHERS             (A):   836 ; 0.002 ; 0.020       
   3   NON-BONDED CONTACTS REFINED ATOMS (A):  NULL ;  NULL ;  NULL       
   3   NON-BONDED CONTACTS OTHERS        (A):  NULL ;  NULL ;  NULL       
   3   NON-BONDED TORSION REFINED ATOMS  (A):  NULL ;  NULL ;  NULL       
   3   NON-BONDED TORSION OTHERS         (A):  NULL ;  NULL ;  NULL       
   3   H-BOND (X...Y) REFINED ATOMS      (A):  NULL ;  NULL ;  NULL       
   3   H-BOND (X...Y) OTHERS             (A):  NULL ;  NULL ;  NULL       
   3   POTENTIAL METAL-ION REFINED ATOMS (A):  NULL ;  NULL ;  NULL       
   3   POTENTIAL METAL-ION OTHERS        (A):  NULL ;  NULL ;  NULL       
   3   SYMMETRY VDW REFINED ATOMS        (A):  NULL ;  NULL ;  NULL       
   3   SYMMETRY VDW OTHERS               (A):  NULL ;  NULL ;  NULL       
   3   SYMMETRY H-BOND REFINED ATOMS     (A):  NULL ;  NULL ;  NULL       
   3   SYMMETRY H-BOND OTHERS            (A):  NULL ;  NULL ;  NULL       
   3   SYMMETRY METAL-ION REFINED ATOMS  (A):  NULL ;  NULL ;  NULL       
   3   SYMMETRY METAL-ION OTHERS         (A):  NULL ;  NULL ;  NULL       
   3                                                                      
   3  ISOTROPIC THERMAL FACTOR RESTRAINTS.     COUNT   RMS    WEIGHT      
   3   MAIN-CHAIN BOND REFINED ATOMS  (A**2):  NULL ;  NULL ;  NULL       
   3   MAIN-CHAIN BOND OTHER ATOMS    (A**2):  NULL ;  NULL ;  NULL       
   3   MAIN-CHAIN ANGLE REFINED ATOMS (A**2):  NULL ;  NULL ;  NULL       
   3   MAIN-CHAIN ANGLE OTHER ATOMS   (A**2):  NULL ;  NULL ;  NULL       
   3   SIDE-CHAIN BOND REFINED ATOMS  (A**2):  NULL ;  NULL ;  NULL       
   3   SIDE-CHAIN BOND OTHER ATOMS    (A**2):  NULL ;  NULL ;  NULL       
   3   SIDE-CHAIN ANGLE REFINED ATOMS (A**2):  NULL ;  NULL ;  NULL       
   3   SIDE-CHAIN ANGLE OTHER ATOMS   (A**2):  NULL ;  NULL ;  NULL       
   3   LONG RANGE B REFINED ATOMS     (A**2):  NULL ;  NULL ;  NULL       
   3   LONG RANGE B OTHER ATOMS       (A**2):  NULL ;  NULL ;  NULL       
   3                                                                      
   3 ANISOTROPIC THERMAL FACTOR RESTRAINTS.    COUNT   RMS   WEIGHT       
   3   RIGID-BOND RESTRAINTS          (A**2):  NULL ;  NULL ;  NULL       
   3   SPHERICITY; FREE ATOMS         (A**2):  NULL ;  NULL ;  NULL       
   3   SPHERICITY; BONDED ATOMS       (A**2):  NULL ;  NULL ;  NULL       
   3                                                                      
   3  NCS RESTRAINTS STATISTICS                                           
   3   NUMBER OF DIFFERENT NCS GROUPS : NULL                              
   3                                                                      
   3  TLS DETAILS                                                         
   3   NUMBER OF TLS GROUPS  : NULL                                       
   3                                                                      
   3  BULK SOLVENT MODELLING.                                             
   3   METHOD USED : MASK                                                 
   3   PARAMETERS FOR MASK CALCULATION                                    
   3   VDW PROBE RADIUS   : 1.20                                          
   3   ION PROBE RADIUS   : 0.80                                          
   3   SHRINKAGE RADIUS   : 0.80                                          
   3                                                                      
   3  OTHER REFINEMENT REMARKS: HYDROGENS HAVE BEEN ADDED IN THE RIDING   
   3  POSITIONS U VALUES : REFINED INDIVIDUALLY                           
   4                                                                      
   4 6VHS COMPLIES WITH FORMAT V. 3.30, 13-JUL-11                         
 100                                                                      
 100 THIS ENTRY HAS BEEN PROCESSED BY RCSB ON 13-JAN-20.                  
 100 THE DEPOSITION ID IS D_1000246426.                                   
 200                                                                      
 200 EXPERIMENTAL DETAILS                                                 
 200  EXPERIMENT TYPE                : X-RAY DIFFRACTION                  
 200  DATE OF DATA COLLECTION        : 03-DEC-19                          
 200  TEMPERATURE           (KELVIN) : 100                                
 200  PH                             : 7.9                                
 200  NUMBER OF CRYSTALS USED        : 1                                  
 200                                                                      
 200  SYNCHROTRON              (Y/N) : Y                                  
 200  RADIATION SOURCE               : APS                                
 200  BEAMLINE                       : 22-ID                              
 200  X-RAY GENERATOR MODEL          : NULL                               
 200  MONOCHROMATIC OR LAUE    (M/L) : M                                  
 200  WAVELENGTH OR RANGE        (A) : 1                                  
 200  MONOCHROMATOR                  : NULL                               
 200  OPTICS                         : NULL                               
 200                                                                      
 200  DETECTOR TYPE                  : PIXEL                              
 200  DETECTOR MANUFACTURER          : DECTRIS EIGER X 16M                
 200  INTENSITY-INTEGRATION SOFTWARE : MOSFLM                             
 200  DATA SCALING SOFTWARE          : SCALA                              
 200                                                                      
 200  NUMBER OF UNIQUE REFLECTIONS   : 111890                             
 200  RESOLUTION RANGE HIGH      (A) : 1.275                              
 200  RESOLUTION RANGE LOW       (A) : 106.920                            
 200  REJECTION CRITERIA  (SIGMA(I)) : NULL                               
 200                                                                      
 200 OVERALL.                                                             
 200  COMPLETENESS FOR RANGE     (%) : 96.9                               
 200  DATA REDUNDANCY                : 3.600                              
 200  R MERGE                    (I) : NULL                               
 200  R SYM                      (I) : 0.05900                            
 200  <I/SIGMA(I)> FOR THE DATA SET  : 13.5000                            
 200                                                                      
 200 IN THE HIGHEST RESOLUTION SHELL.                                     
 200  HIGHEST RESOLUTION SHELL, RANGE HIGH (A) : 1.28                     
 200  HIGHEST RESOLUTION SHELL, RANGE LOW  (A) : 1.34                     
 200  COMPLETENESS FOR SHELL     (%) : 97.3                               
 200  DATA REDUNDANCY IN SHELL       : 3.70                               
 200  R MERGE FOR SHELL          (I) : 0.09700                            
 200  R SYM FOR SHELL            (I) : 0.09700                            
 200  <I/SIGMA(I)> FOR SHELL         : 6.600                              
 200                                                                      
 200 DIFFRACTION PROTOCOL: SINGLE WAVELENGTH                              
 200 METHOD USED TO DETERMINE THE STRUCTURE: MOLECULAR REPLACEMENT        
 200 SOFTWARE USED: MOLREP                                                
 200 STARTING MODEL: 6MZ1                                                 
 200                                                                      
 200 REMARK: NULL                                                         
 280                                                                      
 280 CRYSTAL                                                              
 280 SOLVENT CONTENT, VS   (%): 39.39                                     
 280 MATTHEWS COEFFICIENT, VM (ANGSTROMS**3/DA): 2.03                     
 280                                                                      
 280 CRYSTALLIZATION CONDITIONS: 1.2 M POTASSIUM PHOSPHATE PH 7.9,        
 280  VAPOR DIFFUSION, HANGING DROP, TEMPERATURE 293K                     
 290                                                                      
 290 CRYSTALLOGRAPHIC SYMMETRY                                            
 290 SYMMETRY OPERATORS FOR SPACE GROUP: P 1 21 1                         
 290                                                                      
 290      SYMOP   SYMMETRY                                                
 290     NNNMMM   OPERATOR                                                
 290       1555   X,Y,Z                                                   
 290       2555   -X,Y+1/2,-Z                                             
 290                                                                      
 290     WHERE NNN -> OPERATOR NUMBER                                     
 290           MMM -> TRANSLATION VECTOR                                  
 290                                                                      
 290 CRYSTALLOGRAPHIC SYMMETRY TRANSFORMATIONS                            
 290 THE FOLLOWING TRANSFORMATIONS OPERATE ON THE ATOM/HETATM             
 290 RECORDS IN THIS ENTRY TO PRODUCE CRYSTALLOGRAPHICALLY                
 290 RELATED MOLECULES.                                                   
 290   SMTRY1   1  1.000000  0.000000  0.000000        0.00000            
 290   SMTRY2   1  0.000000  1.000000  0.000000        0.00000            
 290   SMTRY3   1  0.000000  0.000000  1.000000        0.00000            
 290   SMTRY1   2 -1.000000  0.000000  0.000000        0.00000            
 290   SMTRY2   2  0.000000  1.000000  0.000000       53.46000            
 290   SMTRY3   2  0.000000  0.000000 -1.000000        0.00000            
 290                                                                      
 290 REMARK: NULL                                                         
 300                                                                      
 300 BIOMOLECULE: 1, 2                                                    
 300 SEE REMARK 350 FOR THE AUTHOR PROVIDED AND/OR PROGRAM                
 300 GENERATED ASSEMBLY INFORMATION FOR THE STRUCTURE IN                  
 300 THIS ENTRY. THE REMARK MAY ALSO PROVIDE INFORMATION ON               
 300 BURIED SURFACE AREA.                                                 
 350                                                                      
 350 COORDINATES FOR A COMPLETE MULTIMER REPRESENTING THE KNOWN           
 350 BIOLOGICALLY SIGNIFICANT OLIGOMERIZATION STATE OF THE                
 350 MOLECULE CAN BE GENERATED BY APPLYING BIOMT TRANSFORMATIONS          
 350 GIVEN BELOW.  BOTH NON-CRYSTALLOGRAPHIC AND                          
 350 CRYSTALLOGRAPHIC OPERATIONS ARE GIVEN.                               
 350                                                                      
 350 BIOMOLECULE: 1                                                       
 350 AUTHOR DETERMINED BIOLOGICAL UNIT: MONOMERIC                         
 350 SOFTWARE DETERMINED QUATERNARY STRUCTURE: MONOMERIC                  
 350 SOFTWARE USED: PISA                                                  
 350 APPLY THE FOLLOWING TO CHAINS: A                                     
 350   BIOMT1   1  1.000000  0.000000  0.000000        0.00000            
 350   BIOMT2   1  0.000000  1.000000  0.000000        0.00000            
 350   BIOMT3   1  0.000000  0.000000  1.000000        0.00000            
 350                                                                      
 350 BIOMOLECULE: 2                                                       
 350 AUTHOR DETERMINED BIOLOGICAL UNIT: MONOMERIC                         
 350 SOFTWARE DETERMINED QUATERNARY STRUCTURE: MONOMERIC                  
 350 SOFTWARE USED: PISA                                                  
 350 APPLY THE FOLLOWING TO CHAINS: B                                     
 350   BIOMT1   1  1.000000  0.000000  0.000000        0.00000            
 350   BIOMT2   1  0.000000  1.000000  0.000000        0.00000            
 350   BIOMT3   1  0.000000  0.000000  1.000000        0.00000            
 465                                                                      
 465 MISSING RESIDUES                                                     
 465 THE FOLLOWING RESIDUES WERE NOT LOCATED IN THE                       
 465 EXPERIMENT. (M=MODEL NUMBER; RES=RESIDUE NAME; C=CHAIN               
 465 IDENTIFIER; SSSEQ=SEQUENCE NUMBER; I=INSERTION CODE.)                
 465                                                                      
 465   M RES C SSSEQI                                                     
 465     PCA B    25                                                      
 500                                                                      
 500 GEOMETRY AND STEREOCHEMISTRY                                         
 500 SUBTOPIC: CLOSE CONTACTS IN SAME ASYMMETRIC UNIT                     
 500                                                                      
 500 THE FOLLOWING ATOMS ARE IN CLOSE CONTACT.                            
 500                                                                      
 500  ATM1  RES C  SSEQI   ATM2  RES C  SSEQI           DISTANCE          
 500   O    HOH A   423     O    HOH A   612              1.85            
 500   O1   PO4 B   303     O    HOH B   401              1.96            
 500                                                                      
 500 REMARK: NULL                                                         
 500                                                                      
 500 GEOMETRY AND STEREOCHEMISTRY                                         
 500 SUBTOPIC: TORSION ANGLES                                             
 500                                                                      
 500 TORSION ANGLES OUTSIDE THE EXPECTED RAMACHANDRAN REGIONS:            
 500 (M=MODEL NUMBER; RES=RESIDUE NAME; C=CHAIN IDENTIFIER;               
 500 SSEQ=SEQUENCE NUMBER; I=INSERTION CODE).                             
 500                                                                      
 500 STANDARD TABLE:                                                      
 500 FORMAT:(10X,I3,1X,A3,1X,A1,I4,A1,4X,F7.2,3X,F7.2)                    
 500                                                                      
 500 EXPECTED VALUES: GJ KLEYWEGT AND TA JONES (1996). PHI/PSI-           
 500 CHOLOGY: RAMACHANDRAN REVISITED. STRUCTURE 4, 1395 - 1400            
 500                                                                      
 500  M RES CSSEQI        PSI       PHI                                   
 500    ASP A  53       -1.29   -142.92                                   
 500    CYS A  69     -138.83     50.97                                   
 500    VAL A 103     -136.40   -118.85                                   
 500    ASN A 106       62.22   -156.85                                   
 500    ASN A 106       48.48   -142.74                                   
 500    SER A 220     -128.09   -104.90                                   
 500    ASP B  53       12.75   -152.51                                   
 500    CYS B  69     -138.91     48.53                                   
 500    VAL B 103     -134.24   -114.59                                   
 500    ASN B 106       53.00   -140.71                                   
 500    SER B 220     -130.06   -107.75                                   
 500                                                                      
 500 REMARK: NULL                                                         
 525                                                                      
 525 SOLVENT                                                              
 525                                                                      
 525 THE SOLVENT MOLECULES HAVE CHAIN IDENTIFIERS THAT                    
 525 INDICATE THE POLYMER CHAIN WITH WHICH THEY ARE MOST                  
 525 CLOSELY ASSOCIATED. THE REMARK LISTS ALL THE SOLVENT                 
 525 MOLECULES WHICH ARE MORE THAN 5A AWAY FROM THE                       
 525 NEAREST POLYMER CHAIN (M = MODEL NUMBER;                             
 525 RES=RESIDUE NAME; C=CHAIN IDENTIFIER; SSEQ=SEQUENCE                  
 525 NUMBER; I=INSERTION CODE):                                           
 525                                                                      
 525  M RES CSSEQI                                                        
 525    HOH A 860        DISTANCE =  5.87 ANGSTROMS                       
 525    HOH A 861        DISTANCE =  6.09 ANGSTROMS                       
 525    HOH A 862        DISTANCE =  6.10 ANGSTROMS                       
 525    HOH A 863        DISTANCE =  6.85 ANGSTROMS                       
 525    HOH B 858        DISTANCE =  5.89 ANGSTROMS                       
 800                                                                      
 800 SITE                                                                 
 800 SITE_IDENTIFIER: AC1                                                 
 800 EVIDENCE_CODE: SOFTWARE                                              
 800 SITE_DESCRIPTION: binding site for residue X57 A 301                 
 800                                                                      
 800 SITE_IDENTIFIER: AC2                                                 
 800 EVIDENCE_CODE: SOFTWARE                                              
 800 SITE_DESCRIPTION: binding site for residue PO4 A 302                 
 800                                                                      
 800 SITE_IDENTIFIER: AC3                                                 
 800 EVIDENCE_CODE: SOFTWARE                                              
 800 SITE_DESCRIPTION: binding site for residue PO4 A 303                 
 800                                                                      
 800 SITE_IDENTIFIER: AC4                                                 
 800 EVIDENCE_CODE: SOFTWARE                                              
 800 SITE_DESCRIPTION: binding site for residue PO4 B 302                 
 800                                                                      
 800 SITE_IDENTIFIER: AC5                                                 
 800 EVIDENCE_CODE: SOFTWARE                                              
 800 SITE_DESCRIPTION: binding site for residue PO4 B 303                 
 800                                                                      
 800 SITE_IDENTIFIER: AC6                                                 
 800 EVIDENCE_CODE: SOFTWARE                                              
 800 SITE_DESCRIPTION: binding site for residue PO4 B 304                 
 800                                                                      
 800 SITE_IDENTIFIER: AC7                                                 
 800 EVIDENCE_CODE: SOFTWARE                                              
 800 SITE_DESCRIPTION: binding site for Di-peptide X57 B 301 and SER B    
 800  70                                                                  

>  <DBREF1>  (1) 
 6VHS A   25   290  UNP                  A0A2S1PK93_ECOLX                 
 6VHS B   25   290  UNP                  A0A2S1PK93_ECOLX                 

>  <DBREF2>  (1) 
 6VHS A     A0A2S1PK93                         24         286             
 6VHS B     A0A2S1PK93                         24         286             

>  <SEQRES>  (1) 
   1 A  263  PCA THR SER ALA VAL GLN GLN LYS LEU ALA ALA LEU GLU          
   2 A  263  LYS SER SER GLY GLY ARG LEU GLY VAL ALA LEU ILE ASP          
   3 A  263  THR ALA ASP ASN THR GLN VAL LEU TYR ARG GLY ASP GLU          
   4 A  263  ARG PHE PRO MET CYS SER THR SER LYS VAL MET ALA ALA          
   5 A  263  ALA ALA VAL LEU LYS GLN SER GLU THR GLN LYS GLN LEU          
   6 A  263  LEU ASN GLN PRO VAL GLU ILE LYS PRO ALA ASP LEU VAL          
   7 A  263  ASN TYR ASN PRO ILE ALA GLU LYS HIS VAL ASN GLY THR          
   8 A  263  MET THR LEU ALA GLU LEU SER ALA ALA ALA LEU GLN TYR          
   9 A  263  SER ASP ASN THR ALA MET ASN LYS LEU ILE ALA GLN LEU          
  10 A  263  GLY GLY PRO GLY GLY VAL THR ALA PHE ALA ARG ALA ILE          
  11 A  263  GLY ASP GLU THR PHE ARG LEU ASP ARG THR GLU PRO THR          
  12 A  263  LEU ASN THR ALA ILE PRO GLY ASP PRO ARG ASP THR THR          
  13 A  263  THR PRO ARG ALA MET ALA GLN THR LEU ARG GLN LEU THR          
  14 A  263  LEU GLY HIS ALA LEU GLY GLU THR GLN ARG ALA GLN LEU          
  15 A  263  VAL THR TRP LEU LYS GLY ASN THR THR GLY ALA ALA SER          
  16 A  263  ILE ARG ALA GLY LEU PRO THR SER TRP THR VAL GLY ASP          
  17 A  263  LYS THR GLY SER GLY ASP TYR GLY THR THR ASN ASP ILE          
  18 A  263  ALA VAL ILE TRP PRO GLN GLY ARG ALA PRO LEU VAL LEU          
  19 A  263  VAL THR TYR PHE THR GLN PRO GLN GLN ASN ALA GLU SER          
  20 A  263  ARG ARG ASP VAL LEU ALA SER ALA ALA ARG ILE ILE ALA          
  21 A  263  GLU GLY LEU                                                  
   1 B  263  PCA THR SER ALA VAL GLN GLN LYS LEU ALA ALA LEU GLU          
   2 B  263  LYS SER SER GLY GLY ARG LEU GLY VAL ALA LEU ILE ASP          
   3 B  263  THR ALA ASP ASN THR GLN VAL LEU TYR ARG GLY ASP GLU          
   4 B  263  ARG PHE PRO MET CYS SER THR SER LYS VAL MET ALA ALA          
   5 B  263  ALA ALA VAL LEU LYS GLN SER GLU THR GLN LYS GLN LEU          
   6 B  263  LEU ASN GLN PRO VAL GLU ILE LYS PRO ALA ASP LEU VAL          
   7 B  263  ASN TYR ASN PRO ILE ALA GLU LYS HIS VAL ASN GLY THR          
   8 B  263  MET THR LEU ALA GLU LEU SER ALA ALA ALA LEU GLN TYR          
   9 B  263  SER ASP ASN THR ALA MET ASN LYS LEU ILE ALA GLN LEU          
  10 B  263  GLY GLY PRO GLY GLY VAL THR ALA PHE ALA ARG ALA ILE          
  11 B  263  GLY ASP GLU THR PHE ARG LEU ASP ARG THR GLU PRO THR          
  12 B  263  LEU ASN THR ALA ILE PRO GLY ASP PRO ARG ASP THR THR          
  13 B  263  THR PRO ARG ALA MET ALA GLN THR LEU ARG GLN LEU THR          
  14 B  263  LEU GLY HIS ALA LEU GLY GLU THR GLN ARG ALA GLN LEU          
  15 B  263  VAL THR TRP LEU LYS GLY ASN THR THR GLY ALA ALA SER          
  16 B  263  ILE ARG ALA GLY LEU PRO THR SER TRP THR VAL GLY ASP          
  17 B  263  LYS THR GLY SER GLY ASP TYR GLY THR THR ASN ASP ILE          
  18 B  263  ALA VAL ILE TRP PRO GLN GLY ARG ALA PRO LEU VAL LEU          
  19 B  263  VAL THR TYR PHE THR GLN PRO GLN GLN ASN ALA GLU SER          
  20 B  263  ARG ARG ASP VAL LEU ALA SER ALA ALA ARG ILE ILE ALA          
  21 B  263  GLU GLY LEU                                                  

>  <MODRES>  (1) 
 6VHS PCA A   25  GLN  MODIFIED RESIDUE                                   

>  <HET>  (1) 
 PCA  A  25       8                                                       
 X57  A 301      19                                                       
 PO4  A 302       5                                                       
 PO4  A 303       5                                                       
 X57  B 301      19                                                       
 PO4  B 302       5                                                       
 PO4  B 303       5                                                       
 PO4  B 304       5                                                       

>  <HETNAM>  (1) 
     PCA PYROGLUTAMIC ACID                                                
     X57 (2R)-({[(3R,6S)-6-CARBAMOYL-1-FORMYL-4-METHYL-1,2,3,6-           
   2 X57  TETRAHYDROPYRIDIN-3-YL]AMINO}OXY)(FLUORO)ACETIC ACID            
     PO4 PHOSPHATE ION                                                    

>  <FORMUL>  (1) 
   1  PCA    C5 H7 N O3                                                   
   3  X57    2(C10 H14 F N3 O5)                                           
   4  PO4    5(O4 P 3-)                                                   
  10  HOH   *921(H2 O)                                                    

>  <HELIX>  (1) 
   1 AA1 SER A   27  GLY A   41  1                                  15    
   2 AA2 CYS A   69  THR A   71  5                                   3    
   3 AA3 SER A   72  GLU A   85  1                                  14    
   4 AA4 GLN A   89  ASN A   92  5                                   4    
   5 AA5 LYS A   98  LEU A  102  5                                   5    
   6 AA6 ILE A  108  VAL A  113  5                                   6    
   7 AA7 LEU A  119  TYR A  129  1                                  11    
   8 AA8 ASP A  131  LEU A  142  1                                  12    
   9 AA9 GLY A  144  ILE A  155  1                                  12    
  10 AB1 PRO A  167  THR A  171  5                                   5    
  11 AB2 THR A  182  LEU A  195  1                                  14    
  12 AB3 GLY A  200  GLY A  213  1                                  14    
  13 AB4 SER A  220  LEU A  225  5                                   6    
  14 AB5 ARG A  275  GLY A  289  1                                  15    
  15 AB6 SER B   27  GLY B   41  1                                  15    
  16 AB7 CYS B   69  THR B   71  5                                   3    
  17 AB8 SER B   72  GLU B   85  1                                  14    
  18 AB9 GLN B   89  ASN B   92  5                                   4    
  19 AC1 LYS B   98  LEU B  102  5                                   5    
  20 AC2 ILE B  108  VAL B  113  5                                   6    
  21 AC3 LEU B  119  TYR B  129  1                                  11    
  22 AC4 ASP B  131  LEU B  142  1                                  12    
  23 AC5 GLY B  144  ILE B  155  1                                  12    
  24 AC6 PRO B  167  THR B  171  5                                   5    
  25 AC7 THR B  182  LEU B  195  1                                  14    
  26 AC8 GLY B  200  GLY B  213  1                                  14    
  27 AC9 SER B  220  LEU B  225  5                                   6    
  28 AD1 ARG B  275  GLY B  289  1                                  15    

>  <SHEET>  (1) 
   1 AA1 5 GLN A  56  TYR A  60  0                                        
   2 AA1 5 ARG A  43  ASP A  50 -1  N  LEU A  48   O  VAL A  57           
   3 AA1 5 LEU A 259  THR A 266 -1  O  THR A 266   N  ARG A  43           
   4 AA1 5 THR A 243  TRP A 251 -1  N  ASP A 246   O  THR A 263           
   5 AA1 5 THR A 230  GLY A 238 -1  N  THR A 230   O  TRP A 251           
   1 AA2 2 PHE A  66  PRO A  67  0                                        
   2 AA2 2 THR A 180  THR A 181 -1  O  THR A 181   N  PHE A  66           
   1 AA3 2 PRO A  94  ILE A  97  0                                        
   2 AA3 2 GLY A 115  THR A 118 -1  O  GLY A 115   N  ILE A  97           
   1 AA4 5 GLN B  56  TYR B  60  0                                        
   2 AA4 5 ARG B  43  ASP B  50 -1  N  VAL B  46   O  TYR B  60           
   3 AA4 5 LEU B 259  THR B 266 -1  O  TYR B 264   N  GLY B  45           
   4 AA4 5 THR B 243  TRP B 251 -1  N  ILE B 250   O  LEU B 259           
   5 AA4 5 THR B 230  GLY B 238 -1  N  THR B 230   O  TRP B 251           
   1 AA5 2 PHE B  66  PRO B  67  0                                        
   2 AA5 2 THR B 180  THR B 181 -1  O  THR B 181   N  PHE B  66           
   1 AA6 2 PRO B  94  ILE B  97  0                                        
   2 AA6 2 GLY B 115  THR B 118 -1  O  GLY B 115   N  ILE B  97           

>  <LINK>  (1) 
       C   PCA A  25                 N   THR A  26     1555   1555  1.33  
       OG  SER A  70                 C   X57 A 301     1555   1555  1.34  
       OG  SER B  70                 C   X57 B 301     1555   1555  1.42  

>  <CISPEP>  (1) 
   1 GLU A  166    PRO A  167          0         7.44                     
   2 GLU B  166    PRO B  167          0         6.84                     

>  <SITE>  (1) 
   1 AC1 16 CYS A  69  SER A  70  ASN A 104  SER A 130                    
   2 AC1 16 ASN A 132  ASN A 170  THR A 216  LYS A 234                    
   3 AC1 16 THR A 235  GLY A 236  SER A 237  HOH A 414                    
   4 AC1 16 HOH A 421  HOH A 456  HOH A 484  HOH A 647                    
   1 AC2  3 GLN A 188  HOH A 401  HOH A 559                               
   1 AC3  8 ARG A 153  GLU A 158  HOH A 408  HOH A 437                    
   2 AC3  8 HOH A 440  HOH A 532  HOH A 548  HOH A 649                    
   1 AC4  9 THR B 202  GLN B 203  HOH B 424  HOH B 430                    
   2 AC4  9 HOH B 435  HOH B 487  HOH B 528  HOH B 535                    
   3 AC4  9 HOH B 591                                                     
   1 AC5  3 TYR B  60  ARG B  61  HOH B 401                               
   1 AC6  5 ILE B 155  HIS B 197  ALA B 198  HOH B 404                    
   2 AC6  5 HOH B 405                                                     
   1 AC7 19 MET B  68  CYS B  69  THR B  71  SER B  72                    
   2 AC7 19 LYS B  73  ASN B 104  TYR B 105  SER B 130                    
   3 AC7 19 ASN B 132  ASN B 170  THR B 216  LYS B 234                    
   4 AC7 19 THR B 235  GLY B 236  SER B 237  HOH B 410                    
   5 AC7 19 HOH B 427  HOH B 437  HOH B 550                               

>  <ORIGX1>  (1) 
      1.000000  0.000000  0.000000        0.00000                         

>  <ORIGX2>  (1) 
      0.000000  1.000000  0.000000        0.00000                         

>  <ORIGX3>  (1) 
      0.000000  0.000000  1.000000        0.00000                         

>  <SCALE1>  (1) 
      0.022099  0.000000  0.004621        0.00000                         

>  <SCALE2>  (1) 
      0.000000  0.009353  0.000000        0.00000                         

>  <SCALE3>  (1) 
      0.000000  0.000000  0.021342        0.00000                         

>  <MASTER>  (1) 
      331    0    8   28   18    0   18    6 4904    2   74   42          

$$$$
