start_structures/Ligand_Substrate/Ligand_Complex_Stripped/2RG_3M6H.pdb
     RDKit          3D

 39 41  0  0  1  0  0  0  0  0999 V2000
   48.8011   51.8729   46.3374 N   0  0  0  0  0  0  0  0  0  0  0  0
   47.4488   51.3836   46.5427 C   0  0  2  0  0  0  0  0  0  0  0  0
   47.4035   49.8879   46.4403 C   0  0  0  0  0  0  0  0  0  0  0  0
   46.4731   49.2702   46.9373 O   0  0  0  0  0  0  0  0  0  0  0  0
   46.5174   52.0040   45.5079 C   0  0  0  0  0  0  0  0  0  0  0  0
   46.1562   53.3314   45.8744 O   0  0  0  0  0  0  0  0  0  0  0  0
   39.2189   59.8193   49.6002 C   0  0  0  0  0  0  0  0  0  0  0  0
   39.9596   60.2402   47.3312 N   0  0  0  0  0  0  0  0  0  0  0  0
   39.9662   60.6590   50.1722 O   0  0  0  0  0  0  0  0  0  0  0  0
   39.6390   59.2081   48.3052 C   0  0  1  0  0  0  0  0  0  0  0  0
   40.8688   58.3462   48.4902 C   0  0  0  0  0  0  0  0  0  0  0  0
   40.9723   59.6510   46.4689 C   0  0  0  0  0  0  0  0  0  0  0  0
   41.7238   58.6116   47.2764 C   0  0  2  0  0  0  0  0  0  0  0  0
   46.9121   54.4460   45.5000 C   0  0  0  0  0  0  0  0  0  0  0  0
   46.5378   55.8102   46.0031 C   0  0  1  0  0  0  0  0  0  0  0  0
   47.9159   54.3206   44.7483 O   0  0  0  0  0  0  0  0  0  0  0  0
   45.0399   56.1035   45.8076 C   0  0  1  0  0  0  0  0  0  0  0  0
   46.9845   56.0298   47.4565 C   0  0  1  0  0  0  0  0  0  0  0  0
   46.3300   55.0618   48.4309 C   0  0  0  0  0  0  0  0  0  0  0  0
   48.3731   55.9389   47.5586 O   0  0  0  0  0  0  0  0  0  0  0  0
   44.5816   57.5061   46.2167 C   0  0  2  0  0  0  0  0  0  0  0  0
   43.3459   57.7164   45.3803 C   0  0  2  0  0  0  0  0  0  0  0  0
   44.6089   55.8616   44.4318 N   0  0  0  0  0  0  0  0  0  0  0  0
   41.8979   57.0852   46.3066 S   0  0  0  0  0  0  0  0  0  0  0  0
   43.6508   56.9163   44.1123 C   0  0  0  0  0  0  0  0  0  0  0  0
   42.4583   56.3944   43.3696 C   0  0  0  0  0  0  0  0  0  0  0  0
   45.5983   58.5866   45.8644 C   0  0  0  0  0  0  0  0  0  0  0  0
   42.0177   55.2359   43.5941 O   0  0  0  0  0  0  0  0  0  0  0  0
   41.8080   57.2127   42.4561 O   0  0  0  0  0  0  0  0  0  0  0  0
   37.9680   59.4255   50.1780 N   0  0  0  0  0  0  0  0  0  0  0  0
   37.4103   59.8880   51.4154 C   0  0  0  0  0  0  0  0  0  0  0  0
   36.1678   59.3895   51.8213 C   0  0  0  0  0  0  0  0  0  0  0  0
   35.5842   59.8114   53.0247 C   0  0  0  0  0  0  0  0  0  0  0  0
   36.2585   60.7427   53.8247 C   0  0  0  0  0  0  0  0  0  0  0  0
   37.4996   61.2458   53.4271 C   0  0  0  0  0  0  0  0  0  0  0  0
   38.0735   60.8200   52.2269 C   0  0  0  0  0  0  0  0  0  0  0  0
   34.2771   59.2832   53.4472 C   0  0  0  0  0  0  0  0  0  0  0  0
   33.6662   58.4443   52.7329 O   0  0  0  0  0  0  0  0  0  0  0  0
   33.7036   59.7055   54.6409 O   0  0  0  0  0  0  0  0  0  0  0  0
  2  1  1  6
  2  3  1  0
  3  4  2  0
  5  2  1  0
  6 14  1  0
  6  5  1  0
  7  9  2  0
  7 30  1  0
  8 10  1  0
  8 12  1  0
 10  7  1  1
 10 11  1  0
 11 13  1  0
 12 13  1  0
 13 24  1  1
 14 16  2  0
 15 14  1  1
 15 18  1  0
 17 15  1  0
 17 21  1  0
 17 23  1  6
 18 19  1  1
 18 20  1  0
 21 22  1  0
 21 27  1  6
 22 24  1  1
 22 25  1  0
 23 25  1  0
 25 26  1  0
 26 28  2  0
 26 29  1  0
 30 31  1  0
 31 32  2  0
 31 36  1  0
 32 33  1  0
 33 34  2  0
 33 37  1  0
 34 35  1  0
 35 36  2  0
 37 38  2  0
 37 39  1  0
M  END
>  <HEADER>  (1) 
    HYDROLASE/ANTIBIOTIC                    15-MAR-10   3M6H              

>  <TITLE>  (1) 
    CRYSTAL STRUCTURE OF POST-ISOMERIZED ERTAPENEM COVALENT ADDUCT WITH TB
   2 B-LACTAMASE                                                          

>  <COMPND>  (1) 
    MOL_ID: 1;                                                            
   2 MOLECULE: BETA-LACTAMASE;                                            
   3 CHAIN: A;                                                            
   4 SYNONYM: PENICILLINASE;                                              
   5 EC: 3.5.2.6;                                                         
   6 ENGINEERED: YES                                                      

>  <SOURCE>  (1) 
    MOL_ID: 1;                                                            
   2 ORGANISM_SCIENTIFIC: MYCOBACTERIUM TUBERCULOSIS;                     
   3 ORGANISM_TAXID: 1773;                                                
   4 GENE: BLAA, BLAC, RV2068C, MT2128, MTCY49.07C;                       
   5 EXPRESSION_SYSTEM: ESCHERICHIA COLI;                                 
   6 EXPRESSION_SYSTEM_TAXID: 562;                                        
   7 EXPRESSION_SYSTEM_STRAIN: BL21(DE3);                                 
   8 EXPRESSION_SYSTEM_VECTOR_TYPE: PLASMID;                              
   9 EXPRESSION_SYSTEM_PLASMID: PET28                                     

>  <KEYWDS>  (1) 
    ALPHA-BETA STRUCTURE, ANTIBIOTIC RESISTANCE, CELL MEMBRANE,           
   2 HYDROLASE, LIPOPROTEIN, MEMBRANE, PALMITATE, HYDROLASE-ANTIBIOTIC    
   3 COMPLEX                                                              

>  <EXPDTA>  (1) 
    X-RAY DIFFRACTION                                                     

>  <AUTHOR>  (1) 
    L.W.TREMBLAY                                                          

>  <REVDAT>  (1) 
   5   08-NOV-17 3M6H    1       REMARK                                   
   4   16-MAY-12 3M6H    1       HEADER KEYWDS HETSYN VERSN               
   3   12-MAY-10 3M6H    1       JRNL                                     
   2   21-APR-10 3M6H    1       JRNL                                     
   1   14-APR-10 3M6H    0                                                

>  <JRNL>  (1) 
      AUTH   L.W.TREMBLAY,F.FAN,J.S.BLANCHARD                             
      TITL   BIOCHEMICAL AND STRUCTURAL CHARACTERIZATION OF MYCOBACTERIUM 
      TITL 2 TUBERCULOSIS BETA-LACTAMASE WITH THE CARBAPENEMS ERTAPENEM   
      TITL 3 AND DORIPENEM.                                               
      REF    BIOCHEMISTRY                  V.  49  3766 2010              
      REFN                   ISSN 0006-2960                               
      PMID   20353175                                                     
      DOI    10.1021/BI100232Q                                            

>  <REMARK>  (1) 
   2                                                                      
   2 RESOLUTION.    1.99 ANGSTROMS.                                       
   3                                                                      
   3 REFINEMENT.                                                          
   3   PROGRAM     : REFMAC 5.2.0019                                      
   3   AUTHORS     : MURSHUDOV,VAGIN,DODSON                               
   3                                                                      
   3    REFINEMENT TARGET : MAXIMUM LIKELIHOOD                            
   3                                                                      
   3  DATA USED IN REFINEMENT.                                            
   3   RESOLUTION RANGE HIGH (ANGSTROMS) : 1.99                           
   3   RESOLUTION RANGE LOW  (ANGSTROMS) : 30.04                          
   3   DATA CUTOFF            (SIGMA(F)) : 0.000                          
   3   COMPLETENESS FOR RANGE        (%) : 99.4                           
   3   NUMBER OF REFLECTIONS             : 17878                          
   3                                                                      
   3  FIT TO DATA USED IN REFINEMENT.                                     
   3   CROSS-VALIDATION METHOD          : THROUGHOUT                      
   3   FREE R VALUE TEST SET SELECTION  : RANDOM                          
   3   R VALUE     (WORKING + TEST SET) : 0.177                           
   3   R VALUE            (WORKING SET) : 0.175                           
   3   FREE R VALUE                     : 0.222                           
   3   FREE R VALUE TEST SET SIZE   (%) : 5.100                           
   3   FREE R VALUE TEST SET COUNT      : 911                             
   3                                                                      
   3  FIT IN THE HIGHEST RESOLUTION BIN.                                  
   3   TOTAL NUMBER OF BINS USED           : 20                           
   3   BIN RESOLUTION RANGE HIGH       (A) : 1.99                         
   3   BIN RESOLUTION RANGE LOW        (A) : 2.05                         
   3   REFLECTION IN BIN     (WORKING SET) : 1200                         
   3   BIN COMPLETENESS (WORKING+TEST) (%) : 97.61                        
   3   BIN R VALUE           (WORKING SET) : 0.1910                       
   3   BIN FREE R VALUE SET COUNT          : 66                           
   3   BIN FREE R VALUE                    : 0.2810                       
   3                                                                      
   3  NUMBER OF NON-HYDROGEN ATOMS USED IN REFINEMENT.                    
   3   PROTEIN ATOMS            : 1988                                    
   3   NUCLEIC ACID ATOMS       : 0                                       
   3   HETEROGEN ATOMS          : 43                                      
   3   SOLVENT ATOMS            : 155                                     
   3                                                                      
   3  B VALUES.                                                           
   3   FROM WILSON PLOT           (A**2) : NULL                           
   3   MEAN B VALUE      (OVERALL, A**2) : 6.84                           
   3   OVERALL ANISOTROPIC B VALUE.                                       
   3    B11 (A**2) : 0.01000                                              
   3    B22 (A**2) : -0.02000                                             
   3    B33 (A**2) : 0.00000                                              
   3    B12 (A**2) : 0.00000                                              
   3    B13 (A**2) : 0.00000                                              
   3    B23 (A**2) : 0.00000                                              
   3                                                                      
   3  ESTIMATED OVERALL COORDINATE ERROR.                                 
   3   ESU BASED ON R VALUE                            (A): 0.183         
   3   ESU BASED ON FREE R VALUE                       (A): 0.162         
   3   ESU BASED ON MAXIMUM LIKELIHOOD                 (A): 0.096         
   3   ESU FOR B VALUES BASED ON MAXIMUM LIKELIHOOD (A**2): 3.356         
   3                                                                      
   3 CORRELATION COEFFICIENTS.                                            
   3   CORRELATION COEFFICIENT FO-FC      : 0.936                         
   3   CORRELATION COEFFICIENT FO-FC FREE : 0.901                         
   3                                                                      
   3  RMS DEVIATIONS FROM IDEAL VALUES        COUNT    RMS    WEIGHT      
   3   BOND LENGTHS REFINED ATOMS        (A):  2070 ; 0.012 ; 0.022       
   3   BOND LENGTHS OTHERS               (A):  NULL ;  NULL ;  NULL       
   3   BOND ANGLES REFINED ATOMS   (DEGREES):  2829 ; 1.386 ; 1.987       
   3   BOND ANGLES OTHERS          (DEGREES):  NULL ;  NULL ;  NULL       
   3   TORSION ANGLES, PERIOD 1    (DEGREES):   264 ; 6.058 ; 5.000       
   3   TORSION ANGLES, PERIOD 2    (DEGREES):    88 ;38.601 ;23.182       
   3   TORSION ANGLES, PERIOD 3    (DEGREES):   304 ;10.984 ;15.000       
   3   TORSION ANGLES, PERIOD 4    (DEGREES):    19 ;21.600 ;15.000       
   3   CHIRAL-CENTER RESTRAINTS       (A**3):   326 ; 0.089 ; 0.200       
   3   GENERAL PLANES REFINED ATOMS      (A):  1590 ; 0.005 ; 0.020       
   3   GENERAL PLANES OTHERS             (A):  NULL ;  NULL ;  NULL       
   3   NON-BONDED CONTACTS REFINED ATOMS (A):  1004 ; 0.211 ; 0.200       
   3   NON-BONDED CONTACTS OTHERS        (A):  NULL ;  NULL ;  NULL       
   3   NON-BONDED TORSION REFINED ATOMS  (A):  1442 ; 0.299 ; 0.200       
   3   NON-BONDED TORSION OTHERS         (A):  NULL ;  NULL ;  NULL       
   3   H-BOND (X...Y) REFINED ATOMS      (A):   128 ; 0.136 ; 0.200       
   3   H-BOND (X...Y) OTHERS             (A):  NULL ;  NULL ;  NULL       
   3   POTENTIAL METAL-ION REFINED ATOMS (A):  NULL ;  NULL ;  NULL       
   3   POTENTIAL METAL-ION OTHERS        (A):  NULL ;  NULL ;  NULL       
   3   SYMMETRY VDW REFINED ATOMS        (A):    49 ; 0.214 ; 0.200       
   3   SYMMETRY VDW OTHERS               (A):  NULL ;  NULL ;  NULL       
   3   SYMMETRY H-BOND REFINED ATOMS     (A):    17 ; 0.135 ; 0.200       
   3   SYMMETRY H-BOND OTHERS            (A):  NULL ;  NULL ;  NULL       
   3   SYMMETRY METAL-ION REFINED ATOMS  (A):  NULL ;  NULL ;  NULL       
   3   SYMMETRY METAL-ION OTHERS         (A):  NULL ;  NULL ;  NULL       
   3                                                                      
   3  ISOTROPIC THERMAL FACTOR RESTRAINTS.     COUNT   RMS    WEIGHT      
   3   MAIN-CHAIN BOND REFINED ATOMS  (A**2):  1360 ; 0.637 ; 1.500       
   3   MAIN-CHAIN BOND OTHER ATOMS    (A**2):  NULL ;  NULL ;  NULL       
   3   MAIN-CHAIN ANGLE REFINED ATOMS (A**2):  2112 ; 0.963 ; 2.000       
   3   MAIN-CHAIN ANGLE OTHER ATOMS   (A**2):  NULL ;  NULL ;  NULL       
   3   SIDE-CHAIN BOND REFINED ATOMS  (A**2):   806 ; 1.769 ; 3.000       
   3   SIDE-CHAIN BOND OTHER ATOMS    (A**2):  NULL ;  NULL ;  NULL       
   3   SIDE-CHAIN ANGLE REFINED ATOMS (A**2):   717 ; 2.670 ; 4.500       
   3   SIDE-CHAIN ANGLE OTHER ATOMS   (A**2):  NULL ;  NULL ;  NULL       
   3   LONG RANGE B REFINED ATOMS     (A**2):  NULL ;  NULL ;  NULL       
   3   LONG RANGE B OTHER ATOMS       (A**2):  NULL ;  NULL ;  NULL       
   3                                                                      
   3 ANISOTROPIC THERMAL FACTOR RESTRAINTS.    COUNT   RMS   WEIGHT       
   3   RIGID-BOND RESTRAINTS          (A**2):  NULL ;  NULL ;  NULL       
   3   SPHERICITY; FREE ATOMS         (A**2):  NULL ;  NULL ;  NULL       
   3   SPHERICITY; BONDED ATOMS       (A**2):  NULL ;  NULL ;  NULL       
   3                                                                      
   3  NCS RESTRAINTS STATISTICS                                           
   3   NUMBER OF DIFFERENT NCS GROUPS : NULL                              
   3                                                                      
   3  TLS DETAILS                                                         
   3   NUMBER OF TLS GROUPS  : NULL                                       
   3                                                                      
   3  BULK SOLVENT MODELLING.                                             
   3   METHOD USED : MASK                                                 
   3   PARAMETERS FOR MASK CALCULATION                                    
   3   VDW PROBE RADIUS   : 1.20                                          
   3   ION PROBE RADIUS   : 0.80                                          
   3   SHRINKAGE RADIUS   : 0.80                                          
   3                                                                      
   3  OTHER REFINEMENT REMARKS: HYDROGENS HAVE BEEN ADDED IN THE RIDING   
   3  POSITIONS                                                           
   4                                                                      
   4 3M6H COMPLIES WITH FORMAT V. 3.30, 13-JUL-11                         
 100                                                                      
 100 THIS ENTRY HAS BEEN PROCESSED BY RCSB ON 19-MAR-10.                  
 100 THE DEPOSITION ID IS D_1000058168.                                   
 200                                                                      
 200 EXPERIMENTAL DETAILS                                                 
 200  EXPERIMENT TYPE                : X-RAY DIFFRACTION                  
 200  DATE OF DATA COLLECTION        : 08-AUG-07                          
 200  TEMPERATURE           (KELVIN) : 100                                
 200  PH                             : 4.1                                
 200  NUMBER OF CRYSTALS USED        : 1                                  
 200                                                                      
 200  SYNCHROTRON              (Y/N) : Y                                  
 200  RADIATION SOURCE               : NSLS                               
 200  BEAMLINE                       : X12C                               
 200  X-RAY GENERATOR MODEL          : NULL                               
 200  MONOCHROMATIC OR LAUE    (M/L) : M                                  
 200  WAVELENGTH OR RANGE        (A) : 1.100                              
 200  MONOCHROMATOR                  : GRAPHITE                           
 200  OPTICS                         : NULL                               
 200                                                                      
 200  DETECTOR TYPE                  : IMAGE PLATE                        
 200  DETECTOR MANUFACTURER          : RIGAKU RAXIS                       
 200  INTENSITY-INTEGRATION SOFTWARE : DENZO                              
 200  DATA SCALING SOFTWARE          : SCALEPACK                          
 200                                                                      
 200  NUMBER OF UNIQUE REFLECTIONS   : 17920                              
 200  RESOLUTION RANGE HIGH      (A) : 1.994                              
 200  RESOLUTION RANGE LOW       (A) : 50.000                             
 200  REJECTION CRITERIA  (SIGMA(I)) : NULL                               
 200                                                                      
 200 OVERALL.                                                             
 200  COMPLETENESS FOR RANGE     (%) : 99.5                               
 200  DATA REDUNDANCY                : 4.400                              
 200  R MERGE                    (I) : 0.19100                            
 200  R SYM                      (I) : NULL                               
 200  <I/SIGMA(I)> FOR THE DATA SET  : 9.8000                             
 200                                                                      
 200 IN THE HIGHEST RESOLUTION SHELL.                                     
 200  HIGHEST RESOLUTION SHELL, RANGE HIGH (A) : 1.99                     
 200  HIGHEST RESOLUTION SHELL, RANGE LOW  (A) : 2.07                     
 200  COMPLETENESS FOR SHELL     (%) : 99.9                               
 200  DATA REDUNDANCY IN SHELL       : 4.40                               
 200  R MERGE FOR SHELL          (I) : 0.42400                            
 200  R SYM FOR SHELL            (I) : NULL                               
 200  <I/SIGMA(I)> FOR SHELL         : 4.000                              
 200                                                                      
 200 DIFFRACTION PROTOCOL: SINGLE WAVELENGTH                              
 200 METHOD USED TO DETERMINE THE STRUCTURE: MOLECULAR REPLACEMENT        
 200 SOFTWARE USED: NULL                                                  
 200 STARTING MODEL: PDB ENTRY 3DWZ                                       
 200                                                                      
 200 REMARK: NULL                                                         
 280                                                                      
 280 CRYSTAL                                                              
 280 SOLVENT CONTENT, VS   (%): 45.39                                     
 280 MATTHEWS COEFFICIENT, VM (ANGSTROMS**3/DA): 2.25                     
 280                                                                      
 280 CRYSTALLIZATION CONDITIONS: 0.1 M HEPES, 2 M NH4(H2)PO4, PH 4.1,     
 280  HANGING DROP, TEMPERATURE 298K                                      
 290                                                                      
 290 CRYSTALLOGRAPHIC SYMMETRY                                            
 290 SYMMETRY OPERATORS FOR SPACE GROUP: P 21 21 21                       
 290                                                                      
 290      SYMOP   SYMMETRY                                                
 290     NNNMMM   OPERATOR                                                
 290       1555   X,Y,Z                                                   
 290       2555   -X+1/2,-Y,Z+1/2                                         
 290       3555   -X,Y+1/2,-Z+1/2                                         
 290       4555   X+1/2,-Y+1/2,-Z                                         
 290                                                                      
 290     WHERE NNN -> OPERATOR NUMBER                                     
 290           MMM -> TRANSLATION VECTOR                                  
 290                                                                      
 290 CRYSTALLOGRAPHIC SYMMETRY TRANSFORMATIONS                            
 290 THE FOLLOWING TRANSFORMATIONS OPERATE ON THE ATOM/HETATM             
 290 RECORDS IN THIS ENTRY TO PRODUCE CRYSTALLOGRAPHICALLY                
 290 RELATED MOLECULES.                                                   
 290   SMTRY1   1  1.000000  0.000000  0.000000        0.00000            
 290   SMTRY2   1  0.000000  1.000000  0.000000        0.00000            
 290   SMTRY3   1  0.000000  0.000000  1.000000        0.00000            
 290   SMTRY1   2 -1.000000  0.000000  0.000000       24.96700            
 290   SMTRY2   2  0.000000 -1.000000  0.000000        0.00000            
 290   SMTRY3   2  0.000000  0.000000  1.000000       37.60050            
 290   SMTRY1   3 -1.000000  0.000000  0.000000        0.00000            
 290   SMTRY2   3  0.000000  1.000000  0.000000       33.91500            
 290   SMTRY3   3  0.000000  0.000000 -1.000000       37.60050            
 290   SMTRY1   4  1.000000  0.000000  0.000000       24.96700            
 290   SMTRY2   4  0.000000 -1.000000  0.000000       33.91500            
 290   SMTRY3   4  0.000000  0.000000 -1.000000        0.00000            
 290                                                                      
 290 REMARK: NULL                                                         
 300                                                                      
 300 BIOMOLECULE: 1                                                       
 300 SEE REMARK 350 FOR THE AUTHOR PROVIDED AND/OR PROGRAM                
 300 GENERATED ASSEMBLY INFORMATION FOR THE STRUCTURE IN                  
 300 THIS ENTRY. THE REMARK MAY ALSO PROVIDE INFORMATION ON               
 300 BURIED SURFACE AREA.                                                 
 350                                                                      
 350 COORDINATES FOR A COMPLETE MULTIMER REPRESENTING THE KNOWN           
 350 BIOLOGICALLY SIGNIFICANT OLIGOMERIZATION STATE OF THE                
 350 MOLECULE CAN BE GENERATED BY APPLYING BIOMT TRANSFORMATIONS          
 350 GIVEN BELOW.  BOTH NON-CRYSTALLOGRAPHIC AND                          
 350 CRYSTALLOGRAPHIC OPERATIONS ARE GIVEN.                               
 350                                                                      
 350 BIOMOLECULE: 1                                                       
 350 AUTHOR DETERMINED BIOLOGICAL UNIT: MONOMERIC                         
 350 SOFTWARE DETERMINED QUATERNARY STRUCTURE: MONOMERIC                  
 350 SOFTWARE USED: PISA                                                  
 350 APPLY THE FOLLOWING TO CHAINS: A                                     
 350   BIOMT1   1  1.000000  0.000000  0.000000        0.00000            
 350   BIOMT2   1  0.000000  1.000000  0.000000        0.00000            
 350   BIOMT3   1  0.000000  0.000000  1.000000        0.00000            
 500                                                                      
 500 GEOMETRY AND STEREOCHEMISTRY                                         
 500 SUBTOPIC: COVALENT BOND ANGLES                                       
 500                                                                      
 500 THE STEREOCHEMICAL PARAMETERS OF THE FOLLOWING RESIDUES              
 500 HAVE VALUES WHICH DEVIATE FROM EXPECTED VALUES BY MORE               
 500 THAN 6*RMSD (M=MODEL NUMBER; RES=RESIDUE NAME; C=CHAIN               
 500 IDENTIFIER; SSEQ=SEQUENCE NUMBER; I=INSERTION CODE).                 
 500                                                                      
 500 STANDARD TABLE:                                                      
 500 FORMAT: (10X,I3,1X,A3,1X,A1,I4,A1,3(1X,A4,2X),12X,F5.1)              
 500                                                                      
 500 EXPECTED VALUES PROTEIN: ENGH AND HUBER, 1999                        
 500 EXPECTED VALUES NUCLEIC ACID: CLOWNEY ET AL 1996                     
 500                                                                      
 500  M RES CSSEQI ATM1   ATM2   ATM3                                     
 500    ARG A 229   NE  -  CZ  -  NH2 ANGL. DEV. =  -4.4 DEGREES          
 500                                                                      
 500 REMARK: NULL                                                         
 500                                                                      
 500 GEOMETRY AND STEREOCHEMISTRY                                         
 500 SUBTOPIC: TORSION ANGLES                                             
 500                                                                      
 500 TORSION ANGLES OUTSIDE THE EXPECTED RAMACHANDRAN REGIONS:            
 500 (M=MODEL NUMBER; RES=RESIDUE NAME; C=CHAIN IDENTIFIER;               
 500 SSEQ=SEQUENCE NUMBER; I=INSERTION CODE).                             
 500                                                                      
 500 STANDARD TABLE:                                                      
 500 FORMAT:(10X,I3,1X,A3,1X,A1,I4,A1,4X,F7.2,3X,F7.2)                    
 500                                                                      
 500 EXPECTED VALUES: GJ KLEYWEGT AND TA JONES (1996). PHI/PSI-           
 500 CHOLOGY: RAMACHANDRAN REVISITED. STRUCTURE 4, 1395 - 1400            
 500                                                                      
 500  M RES CSSEQI        PSI       PHI                                   
 500    THR A  66     -163.64   -121.05                                   
 500    CYS A  83     -140.35     42.63                                   
 500    ARG A 236     -115.26   -117.85                                   
 500                                                                      
 500 REMARK: NULL                                                         
 800                                                                      
 800 SITE                                                                 
 800 SITE_IDENTIFIER: AC1                                                 
 800 EVIDENCE_CODE: SOFTWARE                                              
 800 SITE_DESCRIPTION: BINDING SITE FOR RESIDUE PO4 A 1                   
 800                                                                      
 800 SITE_IDENTIFIER: AC2                                                 
 800 EVIDENCE_CODE: SOFTWARE                                              
 800 SITE_DESCRIPTION: BINDING SITE FOR RESIDUE PO4 A 2                   
 800                                                                      
 800 SITE_IDENTIFIER: AC3                                                 
 800 EVIDENCE_CODE: SOFTWARE                                              
 800 SITE_DESCRIPTION: BINDING SITE FOR RESIDUE 2RG A 308                 
 900                                                                      
 900 RELATED ENTRIES                                                      
 900 RELATED ID: 3M6B   RELATED DB: PDB                                   

>  <DBREF>  (1) 
 3M6H A   43   307  UNP    P0C5C1   BLAC_MYCTU      43    307             

>  <SEQRES>  (1) 
   1 A  265  ASP LEU ALA ASP ARG PHE ALA GLU LEU GLU ARG ARG TYR          
   2 A  265  ASP ALA ARG LEU GLY VAL TYR VAL PRO ALA THR GLY THR          
   3 A  265  THR ALA ALA ILE GLU TYR ARG ALA ASP GLU ARG PHE ALA          
   4 A  265  PHE CYS SER THR PHE LYS ALA PRO LEU VAL ALA ALA VAL          
   5 A  265  LEU HIS GLN ASN PRO LEU THR HIS LEU ASP LYS LEU ILE          
   6 A  265  THR TYR THR SER ASP ASP ILE ARG SER ILE SER PRO VAL          
   7 A  265  ALA GLN GLN HIS VAL GLN THR GLY MET THR ILE GLY GLN          
   8 A  265  LEU CYS ASP ALA ALA ILE ARG TYR SER ASP GLY THR ALA          
   9 A  265  ALA ASN LEU LEU LEU ALA ASP LEU GLY GLY PRO GLY GLY          
  10 A  265  GLY THR ALA ALA PHE THR GLY TYR LEU ARG SER LEU GLY          
  11 A  265  ASP THR VAL SER ARG LEU ASP ALA GLU GLU PRO GLU LEU          
  12 A  265  ASN ARG ASP PRO PRO GLY ASP GLU ARG ASP THR THR THR          
  13 A  265  PRO HIS ALA ILE ALA LEU VAL LEU GLN GLN LEU VAL LEU          
  14 A  265  GLY ASN ALA LEU PRO PRO ASP LYS ARG ALA LEU LEU THR          
  15 A  265  ASP TRP MET ALA ARG ASN THR THR GLY ALA LYS ARG ILE          
  16 A  265  ARG ALA GLY PHE PRO ALA ASP TRP LYS VAL ILE ASP LYS          
  17 A  265  THR GLY THR GLY ASP TYR GLY ARG ALA ASN ASP ILE ALA          
  18 A  265  VAL VAL TRP SER PRO THR GLY VAL PRO TYR VAL VAL ALA          
  19 A  265  VAL MET SER ASP ARG ALA GLY GLY GLY TYR ASP ALA GLU          
  20 A  265  PRO ARG GLU ALA LEU LEU ALA GLU ALA ALA THR CYS VAL          
  21 A  265  ALA GLY VAL LEU ALA                                          

>  <HET>  (1) 
 PO4  A   1       5                                                       
 PO4  A   2       5                                                       
 2RG  A 308      33                                                       

>  <HETNAM>  (1) 
     PO4 PHOSPHATE ION                                                    
     2RG (2S,3R,4S)-4-({(3S,5S)-5-[(3-CARBOXYPHENYL)                      
   2 2RG  CARBAMOYL]PYRROLIDIN-3-YL}SULFANYL)-2-[(1S,2R)-1-               
   3 2RG  FORMYL-2-HYDROXYPROPYL]-3-METHYL-3,4-DIHYDRO-2H-                
   4 2RG  PYRROLE-5-CARBOXYLIC ACID                                       

>  <HETSYN>  (1) 
     2RG ERTAPENEM, BOUND FORM POST-ISOMERIZED                            

>  <FORMUL>  (1) 
   2  PO4    2(O4 P 3-)                                                   
   4  2RG    C22 H27 N3 O7 S                                              
   5  HOH   *155(H2 O)                                                    

>  <HELIX>  (1) 
   1   1 ASP A   43  TYR A   55  1                                  13    
   2   2 CYS A   83  THR A   85  5                                   3    
   3   3 PHE A   86  ASN A   98  1                                  13    
   4   4 PRO A   99  ASP A  104  5                                   6    
   5   5 THR A  110  ILE A  114  5                                   5    
   6   6 VAL A  120  VAL A  125  1                                   6    
   7   7 ILE A  131  TYR A  141  1                                  11    
   8   8 ASP A  143  GLY A  155  1                                  13    
   9   9 PRO A  157  GLY A  159  5                                   3    
  10  10 GLY A  160  LEU A  171  1                                  12    
  11  11 PRO A  183  ARG A  187  5                                   5    
  12  12 THR A  198  LEU A  211  1                                  14    
  13  13 PRO A  216  ARG A  229  1                                  14    
  14  14 ARG A  236  PHE A  241  1                                   6    
  15  15 ARG A  281  GLY A  285  5                                   5    
  16  16 ARG A  291  ALA A  307  1                                  17    

>  <SHEET>  (1) 
   1   A 5 ILE A  72  TYR A  74  0                                        
   2   A 5 ARG A  58  VAL A  63 -1  N  VAL A  61   O  TYR A  74           
   3   A 5 PRO A 272  ASP A 280 -1  O  MET A 278   N  GLY A  60           
   4   A 5 ARG A 258  TRP A 266 -1  N  ASP A 261   O  VAL A 277           
   5   A 5 LYS A 246  GLY A 254 -1  N  GLY A 252   O  ASN A 260           
   1   B 2 PHE A  80  ALA A  81  0                                        
   2   B 2 THR A 196  THR A 197 -1  O  THR A 197   N  PHE A  80           
   1   C 2 LEU A 106  ILE A 107  0                                        
   2   C 2 MET A 129  THR A 130 -1  O  MET A 129   N  ILE A 107           

>  <LINK>  (1) 
       OG  SER A  84                 CAA 2RG A 308     1555   1555  1.53  

>  <CISPEP>  (1) 
   1 GLU A  182    PRO A  183          0        -1.85                     

>  <SITE>  (1) 
   1 AC1  5 HOH A  12  ARG A  75  GLU A  78  GLU A 184                    
   2 AC1  5 HOH A 333                                                     
   1 AC2  6 ARG A  79  ARG A 187  GLU A 193  ASP A 255                    
   2 AC2  6 TYR A 286  HOH A 366                                          
   1 AC3 18 CYS A  83  SER A  84  LYS A  87  ILE A 117                    
   2 AC3 18 SER A 118  PRO A 119  GLN A 122  SER A 142                    
   3 AC3 18 GLU A 182  PRO A 189  PRO A 190  GLY A 191                    
   4 AC3 18 ASP A 192  THR A 251  GLY A 252  THR A 253                    
   5 AC3 18 HOH A 369  HOH A 373                                          

>  <ORIGX1>  (1) 
      1.000000  0.000000  0.000000        0.00000                         

>  <ORIGX2>  (1) 
      0.000000  1.000000  0.000000        0.00000                         

>  <ORIGX3>  (1) 
      0.000000  0.000000  1.000000        0.00000                         

>  <SCALE1>  (1) 
      0.020026  0.000000  0.000000        0.00000                         

>  <SCALE2>  (1) 
      0.000000  0.014743  0.000000        0.00000                         

>  <SCALE3>  (1) 
      0.000000  0.000000  0.013298        0.00000                         

>  <MASTER>  (1) 
      290    0    3   16    9    0    9    6 2186    1   44   21          

$$$$
