start_structures/Ligand_Substrate/Ligand_Complex_Stripped/1S6_4JXG.pdb
     RDKit          3D

 34 36  0  0  1  0  0  0  0  0999 V2000
   48.7943   51.8797   46.3357 N   0  0  0  0  0  0  0  0  0  0  0  0
   47.4444   51.3839   46.5429 C   0  0  2  0  0  0  0  0  0  0  0  0
   47.4039   49.8882   46.4408 C   0  0  0  0  0  0  0  0  0  0  0  0
   46.4741   49.2685   46.9365 O   0  0  0  0  0  0  0  0  0  0  0  0
   46.5143   52.0003   45.5082 C   0  0  0  0  0  0  0  0  0  0  0  0
   46.1690   53.3294   45.8759 O   0  0  0  0  0  0  0  0  0  0  0  0
   45.3093   54.1113   45.1019 C   0  0  0  0  0  0  0  0  0  0  0  0
   43.6898   55.5450   46.2825 N   0  0  0  0  0  0  0  0  0  0  0  0
   44.9495   55.4991   45.5373 C   0  0  1  0  0  0  0  0  0  0  0  0
   46.0873   56.2504   46.2386 C   0  0  2  0  0  0  0  0  0  0  0  0
   40.6419   55.8388   46.3036 C   0  0  0  0  0  0  0  0  0  0  0  0
   44.6735   57.9496   48.8387 C   0  0  0  0  0  0  0  0  0  0  0  0
   46.6961   59.3206   48.5375 C   0  0  0  0  0  0  0  0  0  0  0  0
   48.8575   57.2130   47.2310 O   0  0  0  0  0  0  0  0  0  0  0  0
   44.1667   53.9029   47.8774 O   0  0  0  0  0  0  0  0  0  0  0  0
   49.0953   56.7775   49.4668 O   0  0  0  0  0  0  0  0  0  0  0  0
   44.6422   54.1036   52.7994 C   0  0  0  0  0  0  0  0  0  0  0  0
   43.2685   53.9091   52.9656 C   0  0  0  0  0  0  0  0  0  0  0  0
   45.1365   54.5876   51.5857 C   0  0  0  0  0  0  0  0  0  0  0  0
   42.3901   54.1943   51.9160 C   0  0  0  0  0  0  0  0  0  0  0  0
   44.2567   54.8720   50.5379 C   0  0  0  0  0  0  0  0  0  0  0  0
   40.6382   55.3229   49.8471 N   0  0  0  0  0  0  0  0  0  0  0  0
   46.3669   55.6972   47.5647 N   0  0  0  0  0  0  0  0  0  0  0  0
   40.0971   55.6454   48.7083 O   0  0  0  0  0  0  0  0  0  0  0  0
   45.7057   58.0325   46.3395 S   0  0  0  0  0  0  0  0  0  0  0  0
   48.3119   56.9355   48.3320 C   0  0  0  0  0  0  0  0  0  0  0  0
   43.3983   54.8199   47.4838 C   0  0  0  0  0  0  0  0  0  0  0  0
   40.9639   55.5528   47.7294 C   0  0  0  0  0  0  0  0  0  0  0  0
   42.8776   54.6657   50.6884 C   0  0  0  0  0  0  0  0  0  0  0  0
   41.9267   55.0004   49.6075 C   0  0  0  0  0  0  0  0  0  0  0  0
   42.1747   55.1304   48.2437 C   0  0  0  0  0  0  0  0  0  0  0  0
   46.8193   56.7751   48.4343 C   0  0  1  0  0  0  0  0  0  0  0  0
   46.0068   58.0300   48.1199 C   0  0  0  0  0  0  0  0  0  0  0  0
   44.8014   53.6497   44.0447 O   0  0  0  0  0  0  0  0  0  0  0  0
  2  1  1  6
  2  5  1  0
  2  3  1  0
  3  4  2  0
  6  7  1  0
  6  5  1  0
  7 34  2  0
  9  8  1  1
  8 27  1  0
  9  7  1  0
 10  9  1  0
 10 23  1  1
 10 25  1  0
 11 28  1  0
 12 33  1  0
 13 33  1  0
 14 26  2  0
 15 27  2  0
 16 26  1  0
 17 18  2  0
 17 19  1  0
 18 20  1  0
 19 21  2  0
 20 29  2  0
 21 29  1  0
 22 24  1  0
 22 30  2  0
 23 32  1  0
 24 28  1  0
 25 33  1  0
 27 31  1  0
 28 31  2  0
 29 30  1  0
 30 31  1  0
 32 26  1  6
 32 33  1  0
M  END
>  <HEADER>  (1) 
    HYDROLASE/ANTIBIOTIC                    28-MAR-13   4JXG              

>  <TITLE>  (1) 
    CRYSTAL STRUCTURE OF AMPC BETA-LACTAMASE FROM E. COLI IN COMPLEX WITH 
   2 OXACILLIN                                                            

>  <COMPND>  (1) 
    MOL_ID: 1;                                                            
   2 MOLECULE: BETA-LACTAMASE;                                            
   3 CHAIN: B, A;                                                         
   4 SYNONYM: CEPHALOSPORINASE;                                           
   5 EC: 3.5.2.6;                                                         
   6 ENGINEERED: YES                                                      

>  <SOURCE>  (1) 
    MOL_ID: 1;                                                            
   2 ORGANISM_SCIENTIFIC: ESCHERICHIA COLI;                               
   3 ORGANISM_TAXID: 83333;                                               
   4 STRAIN: K12;                                                         
   5 GENE: AMPC, AMPA, B4150, JW4111;                                     
   6 EXPRESSION_SYSTEM: ESCHERICHIA COLI;                                 
   7 EXPRESSION_SYSTEM_TAXID: 562;                                        
   8 EXPRESSION_SYSTEM_VECTOR_TYPE: PLASMID;                              
   9 EXPRESSION_SYSTEM_PLASMID: PET24                                     

>  <KEYWDS>  (1) 
    CEPHALOSPORINASE, BETA-LACTAMASE, SERINE HYDROLASE, ACYL-ENZYME       
   2 COMPLEX, HYDROLASE-ANTIBIOTIC COMPLEX                                

>  <EXPDTA>  (1) 
    X-RAY DIFFRACTION                                                     

>  <AUTHOR>  (1) 
    B.J.WALLAR,R.A.POWERS,B.E.DOCTER                                      

>  <REVDAT>  (1) 
   2   29-JUL-20 4JXG    1       COMPND REMARK HET    HETNAM              
   2 2                   1       FORMUL LINK   SITE   ATOM                
   1   29-OCT-14 4JXG    0                                                

>  <JRNL>  (1) 
      AUTH   B.E.DOCTER,V.L.BAGGETT,R.A.POWERS,B.J.WALLAR                 
      TITL   COMPLEXED STRUCTURES OF AMPC BETA-LACTAMASE                  
      REF    TO BE PUBLISHED                                              
      REFN                                                                

>  <REMARK>  (1) 
   2                                                                      
   2 RESOLUTION.    1.65 ANGSTROMS.                                       
   3                                                                      
   3 REFINEMENT.                                                          
   3   PROGRAM     : REFMAC 5.7.0029                                      
   3   AUTHORS     : MURSHUDOV,SKUBAK,LEBEDEV,PANNU,STEINER,              
   3               : NICHOLLS,WINN,LONG,VAGIN                             
   3                                                                      
   3    REFINEMENT TARGET : MAXIMUM LIKELIHOOD                            
   3                                                                      
   3  DATA USED IN REFINEMENT.                                            
   3   RESOLUTION RANGE HIGH (ANGSTROMS) : 1.65                           
   3   RESOLUTION RANGE LOW  (ANGSTROMS) : 38.02                          
   3   DATA CUTOFF            (SIGMA(F)) : NULL                           
   3   COMPLETENESS FOR RANGE        (%) : 98.3                           
   3   NUMBER OF REFLECTIONS             : 87382                          
   3                                                                      
   3  FIT TO DATA USED IN REFINEMENT.                                     
   3   CROSS-VALIDATION METHOD          : THROUGHOUT                      
   3   FREE R VALUE TEST SET SELECTION  : RANDOM                          
   3   R VALUE     (WORKING + TEST SET) : 0.152                           
   3   R VALUE            (WORKING SET) : 0.151                           
   3   FREE R VALUE                     : 0.185                           
   3   FREE R VALUE TEST SET SIZE   (%) : 5.000                           
   3   FREE R VALUE TEST SET COUNT      : 4614                            
   3                                                                      
   3  FIT IN THE HIGHEST RESOLUTION BIN.                                  
   3   TOTAL NUMBER OF BINS USED           : 20                           
   3   BIN RESOLUTION RANGE HIGH       (A) : 1.65                         
   3   BIN RESOLUTION RANGE LOW        (A) : 1.69                         
   3   REFLECTION IN BIN     (WORKING SET) : 6109                         
   3   BIN COMPLETENESS (WORKING+TEST) (%) : 92.58                        
   3   BIN R VALUE           (WORKING SET) : 0.2210                       
   3   BIN FREE R VALUE SET COUNT          : 303                          
   3   BIN FREE R VALUE                    : 0.2400                       
   3                                                                      
   3  NUMBER OF NON-HYDROGEN ATOMS USED IN REFINEMENT.                    
   3   PROTEIN ATOMS            : 5530                                    
   3   NUCLEIC ACID ATOMS       : 0                                       
   3   HETEROGEN ATOMS          : 73                                      
   3   SOLVENT ATOMS            : 557                                     
   3                                                                      
   3  B VALUES.                                                           
   3   FROM WILSON PLOT           (A**2) : NULL                           
   3   MEAN B VALUE      (OVERALL, A**2) : 24.02                          
   3   OVERALL ANISOTROPIC B VALUE.                                       
   3    B11 (A**2) : 0.68000                                              
   3    B22 (A**2) : 0.16000                                              
   3    B33 (A**2) : -0.78000                                             
   3    B12 (A**2) : 0.00000                                              
   3    B13 (A**2) : 0.69000                                              
   3    B23 (A**2) : 0.00000                                              
   3                                                                      
   3  ESTIMATED OVERALL COORDINATE ERROR.                                 
   3   ESU BASED ON R VALUE                            (A): 0.081         
   3   ESU BASED ON FREE R VALUE                       (A): 0.083         
   3   ESU BASED ON MAXIMUM LIKELIHOOD                 (A): 0.057         
   3   ESU FOR B VALUES BASED ON MAXIMUM LIKELIHOOD (A**2): 1.681         
   3                                                                      
   3 CORRELATION COEFFICIENTS.                                            
   3   CORRELATION COEFFICIENT FO-FC      : 0.974                         
   3   CORRELATION COEFFICIENT FO-FC FREE : 0.963                         
   3                                                                      
   3  RMS DEVIATIONS FROM IDEAL VALUES        COUNT    RMS    WEIGHT      
   3   BOND LENGTHS REFINED ATOMS        (A):  5875 ; 0.023 ; 0.020       
   3   BOND LENGTHS OTHERS               (A):  5456 ; 0.001 ; 0.020       
   3   BOND ANGLES REFINED ATOMS   (DEGREES):  8073 ; 2.235 ; 1.958       
   3   BOND ANGLES OTHERS          (DEGREES): 12526 ; 0.960 ; 3.000       
   3   TORSION ANGLES, PERIOD 1    (DEGREES):   736 ; 6.574 ; 5.000       
   3   TORSION ANGLES, PERIOD 2    (DEGREES):   248 ;37.645 ;24.516       
   3   TORSION ANGLES, PERIOD 3    (DEGREES):   873 ;13.641 ;15.000       
   3   TORSION ANGLES, PERIOD 4    (DEGREES):    26 ;13.279 ;15.000       
   3   CHIRAL-CENTER RESTRAINTS       (A**3):   880 ; 0.135 ; 0.200       
   3   GENERAL PLANES REFINED ATOMS      (A):  6809 ; 0.013 ; 0.021       
   3   GENERAL PLANES OTHERS             (A):  1373 ; 0.001 ; 0.020       
   3   NON-BONDED CONTACTS REFINED ATOMS (A):  NULL ;  NULL ;  NULL       
   3   NON-BONDED CONTACTS OTHERS        (A):  NULL ;  NULL ;  NULL       
   3   NON-BONDED TORSION REFINED ATOMS  (A):  NULL ;  NULL ;  NULL       
   3   NON-BONDED TORSION OTHERS         (A):  NULL ;  NULL ;  NULL       
   3   H-BOND (X...Y) REFINED ATOMS      (A):  NULL ;  NULL ;  NULL       
   3   H-BOND (X...Y) OTHERS             (A):  NULL ;  NULL ;  NULL       
   3   POTENTIAL METAL-ION REFINED ATOMS (A):  NULL ;  NULL ;  NULL       
   3   POTENTIAL METAL-ION OTHERS        (A):  NULL ;  NULL ;  NULL       
   3   SYMMETRY VDW REFINED ATOMS        (A):  NULL ;  NULL ;  NULL       
   3   SYMMETRY VDW OTHERS               (A):  NULL ;  NULL ;  NULL       
   3   SYMMETRY H-BOND REFINED ATOMS     (A):  NULL ;  NULL ;  NULL       
   3   SYMMETRY H-BOND OTHERS            (A):  NULL ;  NULL ;  NULL       
   3   SYMMETRY METAL-ION REFINED ATOMS  (A):  NULL ;  NULL ;  NULL       
   3   SYMMETRY METAL-ION OTHERS         (A):  NULL ;  NULL ;  NULL       
   3                                                                      
   3  ISOTROPIC THERMAL FACTOR RESTRAINTS.     COUNT   RMS    WEIGHT      
   3   MAIN-CHAIN BOND REFINED ATOMS  (A**2):  NULL ;  NULL ;  NULL       
   3   MAIN-CHAIN BOND OTHER ATOMS    (A**2):  NULL ;  NULL ;  NULL       
   3   MAIN-CHAIN ANGLE REFINED ATOMS (A**2):  NULL ;  NULL ;  NULL       
   3   MAIN-CHAIN ANGLE OTHER ATOMS   (A**2):  NULL ;  NULL ;  NULL       
   3   SIDE-CHAIN BOND REFINED ATOMS  (A**2):  NULL ;  NULL ;  NULL       
   3   SIDE-CHAIN BOND OTHER ATOMS    (A**2):  NULL ;  NULL ;  NULL       
   3   SIDE-CHAIN ANGLE REFINED ATOMS (A**2):  NULL ;  NULL ;  NULL       
   3   SIDE-CHAIN ANGLE OTHER ATOMS   (A**2):  NULL ;  NULL ;  NULL       
   3   LONG RANGE B REFINED ATOMS     (A**2):  NULL ;  NULL ;  NULL       
   3   LONG RANGE B OTHER ATOMS       (A**2):  NULL ;  NULL ;  NULL       
   3                                                                      
   3 ANISOTROPIC THERMAL FACTOR RESTRAINTS.    COUNT   RMS   WEIGHT       
   3   RIGID-BOND RESTRAINTS          (A**2):  NULL ;  NULL ;  NULL       
   3   SPHERICITY; FREE ATOMS         (A**2):  NULL ;  NULL ;  NULL       
   3   SPHERICITY; BONDED ATOMS       (A**2):  NULL ;  NULL ;  NULL       
   3                                                                      
   3  NCS RESTRAINTS STATISTICS                                           
   3   NUMBER OF DIFFERENT NCS GROUPS : NULL                              
   3                                                                      
   3  TLS DETAILS                                                         
   3   NUMBER OF TLS GROUPS  : NULL                                       
   3                                                                      
   3  BULK SOLVENT MODELLING.                                             
   3   METHOD USED : BABINET MODEL WITH MASK                              
   3   PARAMETERS FOR MASK CALCULATION                                    
   3   VDW PROBE RADIUS   : 1.20                                          
   3   ION PROBE RADIUS   : 0.80                                          
   3   SHRINKAGE RADIUS   : 0.80                                          
   3                                                                      
   3  OTHER REFINEMENT REMARKS: HYDROGENS HAVE BEEN ADDED IN THE RIDING   
   3  POSITIONS                                                           
   4                                                                      
   4 4JXG COMPLIES WITH FORMAT V. 3.30, 13-JUL-11                         
 100                                                                      
 100 THIS ENTRY HAS BEEN PROCESSED BY RCSB ON 02-APR-13.                  
 100 THE DEPOSITION ID IS D_1000078626.                                   
 200                                                                      
 200 EXPERIMENTAL DETAILS                                                 
 200  EXPERIMENT TYPE                : X-RAY DIFFRACTION                  
 200  DATE OF DATA COLLECTION        : 13-AUG-12                          
 200  TEMPERATURE           (KELVIN) : 100                                
 200  PH                             : 8.7                                
 200  NUMBER OF CRYSTALS USED        : 1                                  
 200                                                                      
 200  SYNCHROTRON              (Y/N) : Y                                  
 200  RADIATION SOURCE               : APS                                
 200  BEAMLINE                       : 21-ID-F                            
 200  X-RAY GENERATOR MODEL          : NULL                               
 200  MONOCHROMATIC OR LAUE    (M/L) : M                                  
 200  WAVELENGTH OR RANGE        (A) : 1.1                                
 200  MONOCHROMATOR                  : NULL                               
 200  OPTICS                         : NULL                               
 200                                                                      
 200  DETECTOR TYPE                  : CCD                                
 200  DETECTOR MANUFACTURER          : MARMOSAIC 225 MM CCD               
 200  INTENSITY-INTEGRATION SOFTWARE : HKL-2000                           
 200  DATA SCALING SOFTWARE          : HKL-2000                           
 200                                                                      
 200  NUMBER OF UNIQUE REFLECTIONS   : 91996                              
 200  RESOLUTION RANGE HIGH      (A) : 1.650                              
 200  RESOLUTION RANGE LOW       (A) : 50.000                             
 200  REJECTION CRITERIA  (SIGMA(I)) : NULL                               
 200                                                                      
 200 OVERALL.                                                             
 200  COMPLETENESS FOR RANGE     (%) : 98.9                               
 200  DATA REDUNDANCY                : NULL                               
 200  R MERGE                    (I) : NULL                               
 200  R SYM                      (I) : NULL                               
 200  <I/SIGMA(I)> FOR THE DATA SET  : NULL                               
 200                                                                      
 200 IN THE HIGHEST RESOLUTION SHELL.                                     
 200  HIGHEST RESOLUTION SHELL, RANGE HIGH (A) : 1.65                     
 200  HIGHEST RESOLUTION SHELL, RANGE LOW  (A) : 1.71                     
 200  COMPLETENESS FOR SHELL     (%) : 100.0                              
 200  DATA REDUNDANCY IN SHELL       : NULL                               
 200  R MERGE FOR SHELL          (I) : NULL                               
 200  R SYM FOR SHELL            (I) : NULL                               
 200  <I/SIGMA(I)> FOR SHELL         : NULL                               
 200                                                                      
 200 DIFFRACTION PROTOCOL: SINGLE WAVELENGTH                              
 200 METHOD USED TO DETERMINE THE STRUCTURE: MOLECULAR REPLACEMENT        
 200 SOFTWARE USED: PHASER                                                
 200 STARTING MODEL: NULL                                                 
 200                                                                      
 200 REMARK: NULL                                                         
 280                                                                      
 280 CRYSTAL                                                              
 280 SOLVENT CONTENT, VS   (%): 50.67                                     
 280 MATTHEWS COEFFICIENT, VM (ANGSTROMS**3/DA): 2.49                     
 280                                                                      
 280 CRYSTALLIZATION CONDITIONS: 1.7M POTASSIUM PHOSPHATE, 3.5MG/ML       
 280  AMPC, PH 8.7, VAPOR DIFFUSION, HANGING DROP, TEMPERATURE 296K       
 290                                                                      
 290 CRYSTALLOGRAPHIC SYMMETRY                                            
 290 SYMMETRY OPERATORS FOR SPACE GROUP: C 1 2 1                          
 290                                                                      
 290      SYMOP   SYMMETRY                                                
 290     NNNMMM   OPERATOR                                                
 290       1555   X,Y,Z                                                   
 290       2555   -X,Y,-Z                                                 
 290       3555   X+1/2,Y+1/2,Z                                           
 290       4555   -X+1/2,Y+1/2,-Z                                         
 290                                                                      
 290     WHERE NNN -> OPERATOR NUMBER                                     
 290           MMM -> TRANSLATION VECTOR                                  
 290                                                                      
 290 CRYSTALLOGRAPHIC SYMMETRY TRANSFORMATIONS                            
 290 THE FOLLOWING TRANSFORMATIONS OPERATE ON THE ATOM/HETATM             
 290 RECORDS IN THIS ENTRY TO PRODUCE CRYSTALLOGRAPHICALLY                
 290 RELATED MOLECULES.                                                   
 290   SMTRY1   1  1.000000  0.000000  0.000000        0.00000            
 290   SMTRY2   1  0.000000  1.000000  0.000000        0.00000            
 290   SMTRY3   1  0.000000  0.000000  1.000000        0.00000            
 290   SMTRY1   2 -1.000000  0.000000  0.000000        0.00000            
 290   SMTRY2   2  0.000000  1.000000  0.000000        0.00000            
 290   SMTRY3   2  0.000000  0.000000 -1.000000        0.00000            
 290   SMTRY1   3  1.000000  0.000000  0.000000       58.92800            
 290   SMTRY2   3  0.000000  1.000000  0.000000       38.43400            
 290   SMTRY3   3  0.000000  0.000000  1.000000        0.00000            
 290   SMTRY1   4 -1.000000  0.000000  0.000000       58.92800            
 290   SMTRY2   4  0.000000  1.000000  0.000000       38.43400            
 290   SMTRY3   4  0.000000  0.000000 -1.000000        0.00000            
 290                                                                      
 290 REMARK: NULL                                                         
 300                                                                      
 300 BIOMOLECULE: 1, 2                                                    
 300 SEE REMARK 350 FOR THE AUTHOR PROVIDED AND/OR PROGRAM                
 300 GENERATED ASSEMBLY INFORMATION FOR THE STRUCTURE IN                  
 300 THIS ENTRY. THE REMARK MAY ALSO PROVIDE INFORMATION ON               
 300 BURIED SURFACE AREA.                                                 
 350                                                                      
 350 COORDINATES FOR A COMPLETE MULTIMER REPRESENTING THE KNOWN           
 350 BIOLOGICALLY SIGNIFICANT OLIGOMERIZATION STATE OF THE                
 350 MOLECULE CAN BE GENERATED BY APPLYING BIOMT TRANSFORMATIONS          
 350 GIVEN BELOW.  BOTH NON-CRYSTALLOGRAPHIC AND                          
 350 CRYSTALLOGRAPHIC OPERATIONS ARE GIVEN.                               
 350                                                                      
 350 BIOMOLECULE: 1                                                       
 350 AUTHOR DETERMINED BIOLOGICAL UNIT: MONOMERIC                         
 350 APPLY THE FOLLOWING TO CHAINS: A                                     
 350   BIOMT1   1  1.000000  0.000000  0.000000        0.00000            
 350   BIOMT2   1  0.000000  1.000000  0.000000        0.00000            
 350   BIOMT3   1  0.000000  0.000000  1.000000        0.00000            
 350                                                                      
 350 BIOMOLECULE: 2                                                       
 350 AUTHOR DETERMINED BIOLOGICAL UNIT: MONOMERIC                         
 350 APPLY THE FOLLOWING TO CHAINS: B, C                                  
 350   BIOMT1   1  1.000000  0.000000  0.000000        0.00000            
 350   BIOMT2   1  0.000000  1.000000  0.000000        0.00000            
 350   BIOMT3   1  0.000000  0.000000  1.000000        0.00000            
 470                                                                      
 470 MISSING ATOM                                                         
 470 THE FOLLOWING RESIDUES HAVE MISSING ATOMS (M=MODEL NUMBER;           
 470 RES=RESIDUE NAME; C=CHAIN IDENTIFIER; SSEQ=SEQUENCE NUMBER;          
 470 I=INSERTION CODE):                                                   
 470   M RES CSSEQI  ATOMS                                                
 470     LYS B  37    CG   CD   CE   NZ                                   
 470     GLN B  56    CG   CD   OE1  NE2                                  
 470     LYS B 126    CG   CD   CE   NZ                                   
 470     LYS B 207    CG   CD   CE   NZ                                   
 470     LYS B 290    CG   CD   CE   NZ                                   
 470     LYS B 299    CG   CD   CE   NZ                                   
 470     GLU B 333    CG   CD   OE1  OE2                                  
 470     LYS A  37    CG   CD   CE   NZ                                   
 470     LYS A  99    CG   CD   CE   NZ                                   
 470     LYS A 126    CG   CD   CE   NZ                                   
 470     GLU A 196    CG   CD   OE1  OE2                                  
 470     LYS A 197    CG   CD   CE   NZ                                   
 470     LYS A 207    CG   CD   CE   NZ                                   
 470     LYS A 246    CG   CD   CE   NZ                                   
 470     ASP A 264    CG   OD1  OD2                                       
 470     LYS A 290    CG   CD   CE   NZ                                   
 470     ILE A 291    CG1  CG2  CD1                                       
 470     LYS A 299    CG   CD   CE   NZ                                   
 500                                                                      
 500 GEOMETRY AND STEREOCHEMISTRY                                         
 500 SUBTOPIC: CLOSE CONTACTS IN SAME ASYMMETRIC UNIT                     
 500                                                                      
 500 THE FOLLOWING ATOMS ARE IN CLOSE CONTACT.                            
 500                                                                      
 500  ATM1  RES C  SSEQI   ATM2  RES C  SSEQI           DISTANCE          
 500   OD2  ASP A    87     OH   TYR A    92              1.84            
 500   OD2  ASP B    87     OH   TYR B    92              2.12            
 500                                                                      
 500 REMARK: NULL                                                         
 500                                                                      
 500 GEOMETRY AND STEREOCHEMISTRY                                         
 500 SUBTOPIC: COVALENT BOND LENGTHS                                      
 500                                                                      
 500 THE STEREOCHEMICAL PARAMETERS OF THE FOLLOWING RESIDUES              
 500 HAVE VALUES WHICH DEVIATE FROM EXPECTED VALUES BY MORE               
 500 THAN 6*RMSD (M=MODEL NUMBER; RES=RESIDUE NAME; C=CHAIN               
 500 IDENTIFIER; SSEQ=SEQUENCE NUMBER; I=INSERTION CODE).                 
 500                                                                      
 500 STANDARD TABLE:                                                      
 500 FORMAT: (10X,I3,1X,2(A3,1X,A1,I4,A1,1X,A4,3X),1X,F6.3)               
 500                                                                      
 500 EXPECTED VALUES PROTEIN: ENGH AND HUBER, 1999                        
 500 EXPECTED VALUES NUCLEIC ACID: CLOWNEY ET AL 1996                     
 500                                                                      
 500  M RES CSSEQI ATM1   RES CSSEQI ATM2   DEVIATION                     
 500    GLU B 171   CD    GLU B 171   OE2     0.070                       
 500    TYR A 150   CE1   TYR A 150   CZ     -0.081                       
 500    GLU A 195   CD    GLU A 195   OE1     0.104                       
 500                                                                      
 500 REMARK: NULL                                                         
 500                                                                      
 500 GEOMETRY AND STEREOCHEMISTRY                                         
 500 SUBTOPIC: COVALENT BOND ANGLES                                       
 500                                                                      
 500 THE STEREOCHEMICAL PARAMETERS OF THE FOLLOWING RESIDUES              
 500 HAVE VALUES WHICH DEVIATE FROM EXPECTED VALUES BY MORE               
 500 THAN 6*RMSD (M=MODEL NUMBER; RES=RESIDUE NAME; C=CHAIN               
 500 IDENTIFIER; SSEQ=SEQUENCE NUMBER; I=INSERTION CODE).                 
 500                                                                      
 500 STANDARD TABLE:                                                      
 500 FORMAT: (10X,I3,1X,A3,1X,A1,I4,A1,3(1X,A4,2X),12X,F5.1)              
 500                                                                      
 500 EXPECTED VALUES PROTEIN: ENGH AND HUBER, 1999                        
 500 EXPECTED VALUES NUCLEIC ACID: CLOWNEY ET AL 1996                     
 500                                                                      
 500  M RES CSSEQI ATM1   ATM2   ATM3                                     
 500    ASP B  87   CB  -  CG  -  OD2 ANGL. DEV. =  -5.8 DEGREES          
 500    ASP B 217   CB  -  CG  -  OD1 ANGL. DEV. =   7.3 DEGREES          
 500    ARG B 232   NE  -  CZ  -  NH1 ANGL. DEV. =  -3.4 DEGREES          
 500    MET B 265   CG  -  SD  -  CE  ANGL. DEV. = -20.5 DEGREES          
 500    ARG B 296   CD  -  NE  -  CZ  ANGL. DEV. =   9.3 DEGREES          
 500    ARG B 296   NE  -  CZ  -  NH1 ANGL. DEV. =   6.9 DEGREES          
 500    ARG B 296   NE  -  CZ  -  NH2 ANGL. DEV. =  -7.7 DEGREES          
 500    ARG A 133   NE  -  CZ  -  NH1 ANGL. DEV. =   3.1 DEGREES          
 500    ASP A 217   CB  -  CG  -  OD1 ANGL. DEV. =   9.7 DEGREES          
 500    ARG A 232   NE  -  CZ  -  NH1 ANGL. DEV. =  -3.5 DEGREES          
 500    ARG A 349   NE  -  CZ  -  NH1 ANGL. DEV. =  -3.6 DEGREES          
 500                                                                      
 500 REMARK: NULL                                                         
 500                                                                      
 500 GEOMETRY AND STEREOCHEMISTRY                                         
 500 SUBTOPIC: TORSION ANGLES                                             
 500                                                                      
 500 TORSION ANGLES OUTSIDE THE EXPECTED RAMACHANDRAN REGIONS:            
 500 (M=MODEL NUMBER; RES=RESIDUE NAME; C=CHAIN IDENTIFIER;               
 500 SSEQ=SEQUENCE NUMBER; I=INSERTION CODE).                             
 500                                                                      
 500 STANDARD TABLE:                                                      
 500 FORMAT:(10X,I3,1X,A3,1X,A1,I4,A1,4X,F7.2,3X,F7.2)                    
 500                                                                      
 500 EXPECTED VALUES: GJ KLEYWEGT AND TA JONES (1996). PHI/PSI-           
 500 CHOLOGY: RAMACHANDRAN REVISITED. STRUCTURE 4, 1395 - 1400            
 500                                                                      
 500  M RES CSSEQI        PSI       PHI                                   
 500    VAL B 178      -60.03   -120.07                                   
 500    TYR B 221       17.63   -156.29                                   
 500    ALA B 307      115.71    -38.60                                   
 500    ASN B 341       45.18    -98.90                                   
 500    GLN A  35       44.52     39.39                                   
 500    VAL A 178      -59.44   -120.49                                   
 500    TYR A 221       16.84   -154.41                                   
 500    ASN A 341       44.91    -97.11                                   
 500                                                                      
 500 REMARK: NULL                                                         
 900                                                                      
 900 RELATED ENTRIES                                                      
 900 RELATED ID: 4KEN   RELATED DB: PDB                                   
 900 RELATED ID: 4KG2   RELATED DB: PDB                                   
 900 RELATED ID: 4KG5   RELATED DB: PDB                                   
 900 RELATED ID: 4KG6   RELATED DB: PDB                                   

>  <DBREF>  (1) 
 4JXG B    4   361  UNP    P00811   AMPC_ECOLI      20    377             
 4JXG A    4   361  UNP    P00811   AMPC_ECOLI      20    377             

>  <SEQRES>  (1) 
   1 B  358  ALA PRO GLN GLN ILE ASN ASP ILE VAL HIS ARG THR ILE          
   2 B  358  THR PRO LEU ILE GLU GLN GLN LYS ILE PRO GLY MET ALA          
   3 B  358  VAL ALA VAL ILE TYR GLN GLY LYS PRO TYR TYR PHE THR          
   4 B  358  TRP GLY TYR ALA ASP ILE ALA LYS LYS GLN PRO VAL THR          
   5 B  358  GLN GLN THR LEU PHE GLU LEU GLY SER VAL SER LYS THR          
   6 B  358  PHE THR GLY VAL LEU GLY GLY ASP ALA ILE ALA ARG GLY          
   7 B  358  GLU ILE LYS LEU SER ASP PRO THR THR LYS TYR TRP PRO          
   8 B  358  GLU LEU THR ALA LYS GLN TRP ASN GLY ILE THR LEU LEU          
   9 B  358  HIS LEU ALA THR TYR THR ALA GLY GLY LEU PRO LEU GLN          
  10 B  358  VAL PRO ASP GLU VAL LYS SER SER SER ASP LEU LEU ARG          
  11 B  358  PHE TYR GLN ASN TRP GLN PRO ALA TRP ALA PRO GLY THR          
  12 B  358  GLN ARG LEU TYR ALA ASN SER SER ILE GLY LEU PHE GLY          
  13 B  358  ALA LEU ALA VAL LYS PRO SER GLY LEU SER PHE GLU GLN          
  14 B  358  ALA MET GLN THR ARG VAL PHE GLN PRO LEU LYS LEU ASN          
  15 B  358  HIS THR TRP ILE ASN VAL PRO PRO ALA GLU GLU LYS ASN          
  16 B  358  TYR ALA TRP GLY TYR ARG GLU GLY LYS ALA VAL HIS VAL          
  17 B  358  SER PRO GLY ALA LEU ASP ALA GLU ALA TYR GLY VAL LYS          
  18 B  358  SER THR ILE GLU ASP MET ALA ARG TRP VAL GLN SER ASN          
  19 B  358  LEU LYS PRO LEU ASP ILE ASN GLU LYS THR LEU GLN GLN          
  20 B  358  GLY ILE GLN LEU ALA GLN SER ARG TYR TRP GLN THR GLY          
  21 B  358  ASP MET TYR GLN GLY LEU GLY TRP GLU MET LEU ASP TRP          
  22 B  358  PRO VAL ASN PRO ASP SER ILE ILE ASN GLY SER ASP ASN          
  23 B  358  LYS ILE ALA LEU ALA ALA ARG PRO VAL LYS ALA ILE THR          
  24 B  358  PRO PRO THR PRO ALA VAL ARG ALA SER TRP VAL HIS LYS          
  25 B  358  THR GLY ALA THR GLY GLY PHE GLY SER TYR VAL ALA PHE          
  26 B  358  ILE PRO GLU LYS GLU LEU GLY ILE VAL MET LEU ALA ASN          
  27 B  358  LYS ASN TYR PRO ASN PRO ALA ARG VAL ASP ALA ALA TRP          
  28 B  358  GLN ILE LEU ASN ALA LEU GLN                                  
   1 A  358  ALA PRO GLN GLN ILE ASN ASP ILE VAL HIS ARG THR ILE          
   2 A  358  THR PRO LEU ILE GLU GLN GLN LYS ILE PRO GLY MET ALA          
   3 A  358  VAL ALA VAL ILE TYR GLN GLY LYS PRO TYR TYR PHE THR          
   4 A  358  TRP GLY TYR ALA ASP ILE ALA LYS LYS GLN PRO VAL THR          
   5 A  358  GLN GLN THR LEU PHE GLU LEU GLY SER VAL SER LYS THR          
   6 A  358  PHE THR GLY VAL LEU GLY GLY ASP ALA ILE ALA ARG GLY          
   7 A  358  GLU ILE LYS LEU SER ASP PRO THR THR LYS TYR TRP PRO          
   8 A  358  GLU LEU THR ALA LYS GLN TRP ASN GLY ILE THR LEU LEU          
   9 A  358  HIS LEU ALA THR TYR THR ALA GLY GLY LEU PRO LEU GLN          
  10 A  358  VAL PRO ASP GLU VAL LYS SER SER SER ASP LEU LEU ARG          
  11 A  358  PHE TYR GLN ASN TRP GLN PRO ALA TRP ALA PRO GLY THR          
  12 A  358  GLN ARG LEU TYR ALA ASN SER SER ILE GLY LEU PHE GLY          
  13 A  358  ALA LEU ALA VAL LYS PRO SER GLY LEU SER PHE GLU GLN          
  14 A  358  ALA MET GLN THR ARG VAL PHE GLN PRO LEU LYS LEU ASN          
  15 A  358  HIS THR TRP ILE ASN VAL PRO PRO ALA GLU GLU LYS ASN          
  16 A  358  TYR ALA TRP GLY TYR ARG GLU GLY LYS ALA VAL HIS VAL          
  17 A  358  SER PRO GLY ALA LEU ASP ALA GLU ALA TYR GLY VAL LYS          
  18 A  358  SER THR ILE GLU ASP MET ALA ARG TRP VAL GLN SER ASN          
  19 A  358  LEU LYS PRO LEU ASP ILE ASN GLU LYS THR LEU GLN GLN          
  20 A  358  GLY ILE GLN LEU ALA GLN SER ARG TYR TRP GLN THR GLY          
  21 A  358  ASP MET TYR GLN GLY LEU GLY TRP GLU MET LEU ASP TRP          
  22 A  358  PRO VAL ASN PRO ASP SER ILE ILE ASN GLY SER ASP ASN          
  23 A  358  LYS ILE ALA LEU ALA ALA ARG PRO VAL LYS ALA ILE THR          
  24 A  358  PRO PRO THR PRO ALA VAL ARG ALA SER TRP VAL HIS LYS          
  25 A  358  THR GLY ALA THR GLY GLY PHE GLY SER TYR VAL ALA PHE          
  26 A  358  ILE PRO GLU LYS GLU LEU GLY ILE VAL MET LEU ALA ASN          
  27 A  358  LYS ASN TYR PRO ASN PRO ALA ARG VAL ASP ALA ALA TRP          
  28 A  358  GLN ILE LEU ASN ALA LEU GLN                                  

>  <HET>  (1) 
 GLC  C   1      11                                                       
 FRU  C   2       1                                                       
 1S6  B 401      28                                                       
 1S6  A 401      28                                                       
 PO4  A 402       5                                                       

>  <HETNAM>  (1) 
     GLC ALPHA-D-GLUCOPYRANOSE                                            
     FRU BETA-D-FRUCTOFURANOSE                                            
     1S6 (2R,4S)-5,5-DIMETHYL-2-[(1R)-1-{[(5-METHYL-3-PHENYL-1,           
   2 1S6  2-OXAZOL-4-YL)CARBONYL]AMINO}-2-OXOETHYL]-1,3-                  
   3 1S6  THIAZOLIDINE-4-CARB OXYLIC ACID                                 
     PO4 PHOSPHATE ION                                                    

>  <HETSYN>  (1) 
     1S6 OXACILLIN, BOUND FORM                                            

>  <FORMUL>  (1) 
   3  GLC    C6 H12 O6                                                    
   3  FRU    C6 H12 O6                                                    
   4  1S6    2(C19 H21 N3 O5 S)                                           
   6  PO4    O4 P 3-                                                      
   7  HOH   *557(H2 O)                                                    

>  <HELIX>  (1) 
   1   1 PRO B    5  LYS B   24  1                                  20    
   2   2 VAL B   65  ARG B   80  1                                  16    
   3   3 PRO B   88  TRP B   93  1                                   6    
   4   4 ALA B   98  ASN B  102  5                                   5    
   5   5 THR B  105  THR B  111  1                                   7    
   6   6 SER B  127  TRP B  138  1                                  12    
   7   7 ALA B  151  VAL B  163  1                                  13    
   8   8 SER B  169  VAL B  178  1                                  10    
   9   9 PRO B  192  TYR B  199  5                                   8    
  10  10 LEU B  216  TYR B  221  1                                   6    
  11  11 ILE B  227  LYS B  239  1                                  13    
  12  12 PRO B  240  ILE B  243  5                                   4    
  13  13 GLU B  245  GLN B  256  1                                  12    
  14  14 ASN B  279  SER B  287  1                                   9    
  15  15 ASP B  288  LEU B  293  1                                   6    
  16  16 PRO B  330  GLU B  333  5                                   4    
  17  17 PRO B  345  GLN B  361  1                                  17    
  18  18 PRO A    5  LYS A   24  1                                  20    
  19  19 VAL A   65  ARG A   80  1                                  16    
  20  20 PRO A   88  TRP A   93  1                                   6    
  21  21 ALA A   98  ASN A  102  5                                   5    
  22  22 THR A  105  THR A  111  1                                   7    
  23  23 SER A  127  TRP A  138  1                                  12    
  24  24 ALA A  151  VAL A  163  1                                  13    
  25  25 SER A  169  VAL A  178  1                                  10    
  26  26 PRO A  192  TYR A  199  5                                   8    
  27  27 LEU A  216  GLY A  222  1                                   7    
  28  28 THR A  226  LYS A  239  1                                  14    
  29  29 PRO A  240  ILE A  243  5                                   4    
  30  30 GLU A  245  GLN A  256  1                                  12    
  31  31 ASN A  279  ASP A  288  1                                  10    
  32  32 ASP A  288  LEU A  293  1                                   6    
  33  33 PRO A  330  GLU A  333  5                                   4    
  34  34 PRO A  345  GLN A  361  1                                  17    

>  <SHEET>  (1) 
   1   A10 GLN B  52  PRO B  53  0                                        
   2   A10 LYS B  37  ASP B  47 -1  N  ASP B  47   O  GLN B  52           
   3   A10 GLY B  27  TYR B  34 -1  N  VAL B  30   O  PHE B  41           
   4   A10 LEU B 334  ALA B 340 -1  O  GLY B 335   N  ILE B  33           
   5   A10 GLY B 323  ILE B 329 -1  N  ALA B 327   O  ILE B 336           
   6   A10 SER B 311  ALA B 318 -1  N  VAL B 313   O  PHE B 328           
   7   A10 GLU B 272  ASP B 275 -1  N  LEU B 274   O  TRP B 312           
   8   A10 MET B 265  GLN B 267 -1  N  TYR B 266   O  MET B 273           
   9   A10 ARG B 258  THR B 262 -1  N  THR B 262   O  MET B 265           
  10   A10 LYS B 299  THR B 305 -1  O  THR B 305   N  ARG B 258           
   1   B 2 LEU B  59  GLU B  61  0                                        
   2   B 2 LYS B 224  THR B 226 -1  O  SER B 225   N  PHE B  60           
   1   C 2 GLN B 147  ARG B 148  0                                        
   2   C 2 ARG B 296  PRO B 297 -1  O  ARG B 296   N  ARG B 148           
   1   D 2 GLY B 202  ARG B 204  0                                        
   2   D 2 LYS B 207  VAL B 209 -1  O  VAL B 209   N  GLY B 202           
   1   E10 GLN A  52  PRO A  53  0                                        
   2   E10 LYS A  37  ASP A  47 -1  N  ALA A  46   O  GLN A  52           
   3   E10 GLY A  27  TYR A  34 -1  N  VAL A  30   O  PHE A  41           
   4   E10 LEU A 334  ALA A 340 -1  O  LEU A 339   N  ALA A  29           
   5   E10 GLY A 323  ILE A 329 -1  N  TYR A 325   O  MET A 338           
   6   E10 SER A 311  ALA A 318 -1  N  GLY A 317   O  SER A 324           
   7   E10 GLU A 272  ASP A 275 -1  N  GLU A 272   O  HIS A 314           
   8   E10 MET A 265  GLN A 267 -1  N  TYR A 266   O  MET A 273           
   9   E10 ARG A 258  THR A 262 -1  N  TYR A 259   O  GLN A 267           
  10   E10 LYS A 299  THR A 305 -1  O  THR A 305   N  ARG A 258           
   1   F 3 PHE A  60  GLU A  61  0                                        
   2   F 3 LYS A 224  SER A 225 -1  O  SER A 225   N  PHE A  60           
   3   F 3 THR A 187  TRP A 188 -1  N  TRP A 188   O  LYS A 224           
   1   G 2 GLN A 147  ARG A 148  0                                        
   2   G 2 ARG A 296  PRO A 297 -1  O  ARG A 296   N  ARG A 148           
   1   H 2 GLY A 202  ARG A 204  0                                        
   2   H 2 LYS A 207  VAL A 209 -1  O  VAL A 209   N  GLY A 202           

>  <LINK>  (1) 
       OG  SER B  64                 C   1S6 B 401     1555   1555  1.38  
       OG  SER A  64                 C   1S6 A 401     1555   1555  1.36  
       C1  GLC C   1                 O2  FRU C   2     1555   1555  1.43  

>  <CISPEP>  (1) 
   1 TRP B  276    PRO B  277          0         7.00                     
   2 THR B  302    PRO B  303          0         4.81                     
   3 TRP A  276    PRO A  277          0         4.75                     
   4 THR A  302    PRO A  303          0        -0.99                     

>  <ORIGX1>  (1) 
      1.000000  0.000000  0.000000        0.00000                         

>  <ORIGX2>  (1) 
      0.000000  1.000000  0.000000        0.00000                         

>  <ORIGX3>  (1) 
      0.000000  0.000000  1.000000        0.00000                         

>  <SCALE1>  (1) 
      0.008485  0.000000  0.004325        0.00000                         

>  <SCALE2>  (1) 
      0.000000  0.013009  0.000000        0.00000                         

>  <SCALE3>  (1) 
      0.000000  0.000000  0.011471        0.00000                         

>  <MASTER>  (1) 
      357    0    5   34   33    0    0    6 6160    2   75   56          

$$$$
