start_structures/Ligand_Substrate/Ligand_Complex_Stripped/AIX_3N8L.pdb
     RDKit          3D

 30 31  0  0  1  0  0  0  0  0999 V2000
   48.7962   51.8780   46.3360 N   0  0  0  0  0  0  0  0  0  0  0  0
   47.4469   51.3815   46.5442 C   0  0  2  0  0  0  0  0  0  0  0  0
   47.4045   49.8864   46.4403 C   0  0  0  0  0  0  0  0  0  0  0  0
   46.4742   49.2679   46.9364 O   0  0  0  0  0  0  0  0  0  0  0  0
   46.5136   52.0019   45.5113 C   0  0  0  0  0  0  0  0  0  0  0  0
   46.1645   53.3342   45.8718 O   0  0  0  0  0  0  0  0  0  0  0  0
   48.2463   59.9444   49.7053 C   0  0  0  0  0  0  0  0  0  0  0  0
   48.4643   57.5837   49.1931 C   0  0  0  0  0  0  0  0  0  0  0  0
   42.9202   55.0213   44.0847 C   0  0  0  0  0  0  0  0  0  0  0  0
   46.2049   55.8318   47.2852 N   0  0  0  0  0  0  0  0  0  0  0  0
   41.1199   56.4304   45.2393 C   0  0  0  0  0  0  0  0  0  0  0  0
   42.6459   55.0130   46.4955 N   0  0  0  0  0  0  0  0  0  0  0  0
   48.4717   56.4863   48.1748 C   0  0  2  0  0  0  0  0  0  0  0  0
   42.4406   55.6575   42.7884 C   0  0  0  0  0  0  0  0  0  0  0  0
   47.2344   55.6518   48.2594 C   0  0  0  0  0  0  0  0  0  0  0  0
   48.2725   58.9042   48.7713 C   0  0  0  0  0  0  0  0  0  0  0  0
   48.4086   59.6672   51.0659 C   0  0  0  0  0  0  0  0  0  0  0  0
   48.5958   58.3496   51.4937 C   0  0  0  0  0  0  0  0  0  0  0  0
   48.6222   57.3090   50.5606 C   0  0  0  0  0  0  0  0  0  0  0  0
   41.9250   55.1587   45.2369 C   0  0  2  0  0  0  0  0  0  0  0  0
   43.9326   55.6969   46.3714 C   0  0  1  0  0  0  0  0  0  0  0  0
   44.9786   55.0434   47.2770 C   0  0  1  0  0  0  0  0  0  0  0  0
   45.2602   53.6194   46.8990 C   0  0  0  0  0  0  0  0  0  0  0  0
   43.1751   53.5486   43.8258 C   0  0  0  0  0  0  0  0  0  0  0  0
   49.6605   55.6590   48.3119 N   0  0  0  0  0  0  0  0  0  0  0  0
   41.6823   57.5507   45.3642 O   0  0  0  0  0  0  0  0  0  0  0  0
   39.7405   56.3659   45.0992 O   0  0  0  0  0  0  0  0  0  0  0  0
   47.0906   54.8184   49.1955 O   0  0  0  0  0  0  0  0  0  0  0  0
   44.6578   52.6906   47.5017 O   0  0  0  0  0  0  0  0  0  0  0  0
   44.4638   55.7896   44.6219 S   0  0  0  0  0  0  0  0  0  0  0  0
  2  1  1  6
  2  3  1  0
  3  4  2  0
  5  2  1  0
  6 23  1  0
  6  5  1  0
  7 16  2  0
  7 17  1  0
  8 13  1  0
  8 16  1  0
  8 19  2  0
  9 14  1  0
  9 20  1  0
  9 24  1  0
  9 30  1  0
 10 15  1  0
 11 26  2  0
 11 27  1  0
 12 20  1  0
 21 12  1  6
 13 15  1  0
 13 25  1  1
 15 28  2  0
 17 18  2  0
 18 19  1  0
 20 11  1  1
 21 22  1  0
 21 30  1  0
 22 10  1  6
 22 23  1  0
 23 29  2  0
M  END
>  <HEADER>  (1) 
    HYDROLASE/ANTIBIOTIC                    28-MAY-10   3N8L              

>  <TITLE>  (1) 
    CRYSTAL STRUCTURE OF BLAC-E166A COVALENTLY BOUND WITH AMPICILLIN      

>  <COMPND>  (1) 
    MOL_ID: 1;                                                            
   2 MOLECULE: BETA-LACTAMASE;                                            
   3 CHAIN: A;                                                            
   4 SYNONYM: PENICILLINASE;                                              
   5 EC: 3.5.2.6;                                                         
   6 ENGINEERED: YES;                                                     
   7 MUTATION: YES                                                        

>  <SOURCE>  (1) 
    MOL_ID: 1;                                                            
   2 ORGANISM_SCIENTIFIC: MYCOBACTERIUM TUBERCULOSIS;                     
   3 ORGANISM_TAXID: 1773;                                                
   4 STRAIN: H37RV;                                                       
   5 GENE: BLAA, BLAC, MT2128, MTCY49.07C, RV2068C;                       
   6 EXPRESSION_SYSTEM: ESCHERICHIA COLI;                                 
   7 EXPRESSION_SYSTEM_TAXID: 562;                                        
   8 EXPRESSION_SYSTEM_STRAIN: ROSETTA2;                                  
   9 EXPRESSION_SYSTEM_VECTOR: PLASMID;                                   
  10 EXPRESSION_SYSTEM_PLASMID: PET28A                                    

>  <KEYWDS>  (1) 
    PENICILLIN BINDING PROTEIN, BETA-LACTAM COVALENT ADDUCT, HYDROLASE-   
   2 ANTIBIOTIC COMPLEX                                                   

>  <EXPDTA>  (1) 
    X-RAY DIFFRACTION                                                     

>  <AUTHOR>  (1) 
    L.W.TREMBLAY,J.S.BLANCHARD                                            

>  <REVDAT>  (1) 
   3   08-NOV-17 3N8L    1       REMARK                                   
   2   28-MAR-12 3N8L    1       HEADER KEYWDS                            
   1   14-DEC-11 3N8L    0                                                

>  <JRNL>  (1) 
      AUTH   L.W.TREMBLAY,J.S.BLANCHARD                                   
      TITL   STRUCTURES OF BLAC-E166A COVALENTLY BOUND TO BETA-LACTAMS    
      TITL 2 FROM ALL CLASSES.                                            
      REF    TO BE PUBLISHED                                              
      REFN                                                                

>  <REMARK>  (1) 
   2                                                                      
   2 RESOLUTION.    1.40 ANGSTROMS.                                       
   3                                                                      
   3 REFINEMENT.                                                          
   3   PROGRAM     : REFMAC                                               
   3   AUTHORS     : MURSHUDOV,VAGIN,DODSON                               
   3                                                                      
   3    REFINEMENT TARGET : MAXIMUM LIKELIHOOD                            
   3                                                                      
   3  DATA USED IN REFINEMENT.                                            
   3   RESOLUTION RANGE HIGH (ANGSTROMS) : 1.40                           
   3   RESOLUTION RANGE LOW  (ANGSTROMS) : 40.10                          
   3   DATA CUTOFF            (SIGMA(F)) : 0.000                          
   3   COMPLETENESS FOR RANGE        (%) : 99.8                           
   3   NUMBER OF REFLECTIONS             : 48141                          
   3                                                                      
   3  FIT TO DATA USED IN REFINEMENT.                                     
   3   CROSS-VALIDATION METHOD          : THROUGHOUT                      
   3   FREE R VALUE TEST SET SELECTION  : RANDOM                          
   3   R VALUE     (WORKING + TEST SET) : 0.137                           
   3   R VALUE            (WORKING SET) : 0.136                           
   3   FREE R VALUE                     : 0.165                           
   3   FREE R VALUE TEST SET SIZE   (%) : 5.100                           
   3   FREE R VALUE TEST SET COUNT      : 2574                            
   3                                                                      
   3  FIT IN THE HIGHEST RESOLUTION BIN.                                  
   3   TOTAL NUMBER OF BINS USED           : 20                           
   3   BIN RESOLUTION RANGE HIGH       (A) : 1.40                         
   3   BIN RESOLUTION RANGE LOW        (A) : 1.44                         
   3   REFLECTION IN BIN     (WORKING SET) : 3468                         
   3   BIN COMPLETENESS (WORKING+TEST) (%) : 99.35                        
   3   BIN R VALUE           (WORKING SET) : 0.1490                       
   3   BIN FREE R VALUE SET COUNT          : 194                          
   3   BIN FREE R VALUE                    : 0.2090                       
   3                                                                      
   3  NUMBER OF NON-HYDROGEN ATOMS USED IN REFINEMENT.                    
   3   PROTEIN ATOMS            : 1984                                    
   3   NUCLEIC ACID ATOMS       : 0                                       
   3   HETEROGEN ATOMS          : 34                                      
   3   SOLVENT ATOMS            : 329                                     
   3                                                                      
   3  B VALUES.                                                           
   3   FROM WILSON PLOT           (A**2) : 8.60                           
   3   MEAN B VALUE      (OVERALL, A**2) : 10.19                          
   3   OVERALL ANISOTROPIC B VALUE.                                       
   3    B11 (A**2) : 0.02000                                              
   3    B22 (A**2) : -0.03000                                             
   3    B33 (A**2) : 0.01000                                              
   3    B12 (A**2) : 0.00000                                              
   3    B13 (A**2) : 0.00000                                              
   3    B23 (A**2) : 0.00000                                              
   3                                                                      
   3  ESTIMATED OVERALL COORDINATE ERROR.                                 
   3   ESU BASED ON R VALUE                            (A): NULL          
   3   ESU BASED ON FREE R VALUE                       (A): 0.052         
   3   ESU BASED ON MAXIMUM LIKELIHOOD                 (A): 0.028         
   3   ESU FOR B VALUES BASED ON MAXIMUM LIKELIHOOD (A**2): 1.490         
   3                                                                      
   3 CORRELATION COEFFICIENTS.                                            
   3   CORRELATION COEFFICIENT FO-FC      : 0.970                         
   3   CORRELATION COEFFICIENT FO-FC FREE : 0.961                         
   3                                                                      
   3  RMS DEVIATIONS FROM IDEAL VALUES        COUNT    RMS    WEIGHT      
   3   BOND LENGTHS REFINED ATOMS        (A):  2056 ; 0.009 ; 0.022       
   3   BOND LENGTHS OTHERS               (A):  NULL ;  NULL ;  NULL       
   3   BOND ANGLES REFINED ATOMS   (DEGREES):  2810 ; 1.343 ; 1.982       
   3   BOND ANGLES OTHERS          (DEGREES):  NULL ;  NULL ;  NULL       
   3   TORSION ANGLES, PERIOD 1    (DEGREES):   264 ; 6.200 ; 5.000       
   3   TORSION ANGLES, PERIOD 2    (DEGREES):    87 ;37.680 ;23.103       
   3   TORSION ANGLES, PERIOD 3    (DEGREES):   302 ;11.248 ;15.000       
   3   TORSION ANGLES, PERIOD 4    (DEGREES):    19 ;23.119 ;15.000       
   3   CHIRAL-CENTER RESTRAINTS       (A**3):   319 ; 0.083 ; 0.200       
   3   GENERAL PLANES REFINED ATOMS      (A):  1579 ; 0.007 ; 0.021       
   3   GENERAL PLANES OTHERS             (A):  NULL ;  NULL ;  NULL       
   3   NON-BONDED CONTACTS REFINED ATOMS (A):  NULL ;  NULL ;  NULL       
   3   NON-BONDED CONTACTS OTHERS        (A):  NULL ;  NULL ;  NULL       
   3   NON-BONDED TORSION REFINED ATOMS  (A):  NULL ;  NULL ;  NULL       
   3   NON-BONDED TORSION OTHERS         (A):  NULL ;  NULL ;  NULL       
   3   H-BOND (X...Y) REFINED ATOMS      (A):  NULL ;  NULL ;  NULL       
   3   H-BOND (X...Y) OTHERS             (A):  NULL ;  NULL ;  NULL       
   3   POTENTIAL METAL-ION REFINED ATOMS (A):  NULL ;  NULL ;  NULL       
   3   POTENTIAL METAL-ION OTHERS        (A):  NULL ;  NULL ;  NULL       
   3   SYMMETRY VDW REFINED ATOMS        (A):  NULL ;  NULL ;  NULL       
   3   SYMMETRY VDW OTHERS               (A):  NULL ;  NULL ;  NULL       
   3   SYMMETRY H-BOND REFINED ATOMS     (A):  NULL ;  NULL ;  NULL       
   3   SYMMETRY H-BOND OTHERS            (A):  NULL ;  NULL ;  NULL       
   3   SYMMETRY METAL-ION REFINED ATOMS  (A):  NULL ;  NULL ;  NULL       
   3   SYMMETRY METAL-ION OTHERS         (A):  NULL ;  NULL ;  NULL       
   3                                                                      
   3  ISOTROPIC THERMAL FACTOR RESTRAINTS.     COUNT   RMS    WEIGHT      
   3   MAIN-CHAIN BOND REFINED ATOMS  (A**2):  1320 ; 1.031 ; 1.500       
   3   MAIN-CHAIN BOND OTHER ATOMS    (A**2):  NULL ;  NULL ;  NULL       
   3   MAIN-CHAIN ANGLE REFINED ATOMS (A**2):  2110 ; 1.650 ; 2.000       
   3   MAIN-CHAIN ANGLE OTHER ATOMS   (A**2):  NULL ;  NULL ;  NULL       
   3   SIDE-CHAIN BOND REFINED ATOMS  (A**2):   736 ; 2.648 ; 3.000       
   3   SIDE-CHAIN BOND OTHER ATOMS    (A**2):  NULL ;  NULL ;  NULL       
   3   SIDE-CHAIN ANGLE REFINED ATOMS (A**2):   700 ; 3.976 ; 4.500       
   3   SIDE-CHAIN ANGLE OTHER ATOMS   (A**2):  NULL ;  NULL ;  NULL       
   3   LONG RANGE B REFINED ATOMS     (A**2):  NULL ;  NULL ;  NULL       
   3   LONG RANGE B OTHER ATOMS       (A**2):  NULL ;  NULL ;  NULL       
   3                                                                      
   3 ANISOTROPIC THERMAL FACTOR RESTRAINTS.    COUNT   RMS   WEIGHT       
   3   RIGID-BOND RESTRAINTS          (A**2):  2056 ; 1.132 ; 3.000       
   3   SPHERICITY; FREE ATOMS         (A**2):  NULL ;  NULL ;  NULL       
   3   SPHERICITY; BONDED ATOMS       (A**2):  NULL ;  NULL ;  NULL       
   3                                                                      
   3  NCS RESTRAINTS STATISTICS                                           
   3   NUMBER OF DIFFERENT NCS GROUPS : NULL                              
   3                                                                      
   3  TLS DETAILS                                                         
   3   NUMBER OF TLS GROUPS  : NULL                                       
   3                                                                      
   3  BULK SOLVENT MODELLING.                                             
   3   METHOD USED : MASK                                                 
   3   PARAMETERS FOR MASK CALCULATION                                    
   3   VDW PROBE RADIUS   : 1.40                                          
   3   ION PROBE RADIUS   : 0.80                                          
   3   SHRINKAGE RADIUS   : 0.80                                          
   3                                                                      
   3  OTHER REFINEMENT REMARKS: HYDROGENS HAVE BEEN ADDED IN THE RIDING   
   3  POSITIONS. U VALUES REFINED INDIVIDUALLY                            
   4                                                                      
   4 3N8L COMPLIES WITH FORMAT V. 3.30, 13-JUL-11                         
 100                                                                      
 100 THIS ENTRY HAS BEEN PROCESSED BY RCSB ON 09-JUN-10.                  
 100 THE DEPOSITION ID IS D_1000059516.                                   
 200                                                                      
 200 EXPERIMENTAL DETAILS                                                 
 200  EXPERIMENT TYPE                : X-RAY DIFFRACTION                  
 200  DATE OF DATA COLLECTION        : 2009                               
 200  TEMPERATURE           (KELVIN) : 100                                
 200  PH                             : 7.5                                
 200  NUMBER OF CRYSTALS USED        : 1                                  
 200                                                                      
 200  SYNCHROTRON              (Y/N) : Y                                  
 200  RADIATION SOURCE               : NSLS                               
 200  BEAMLINE                       : X29A                               
 200  X-RAY GENERATOR MODEL          : NULL                               
 200  MONOCHROMATIC OR LAUE    (M/L) : NULL                               
 200  WAVELENGTH OR RANGE        (A) : 1.100                              
 200  MONOCHROMATOR                  : SI(111) CHANNEL CUT                
 200  OPTICS                         : NULL                               
 200                                                                      
 200  DETECTOR TYPE                  : CCD                                
 200  DETECTOR MANUFACTURER          : ADSC QUANTUM 210                   
 200  INTENSITY-INTEGRATION SOFTWARE : HKL-2000                           
 200  DATA SCALING SOFTWARE          : HKL-2000                           
 200                                                                      
 200  NUMBER OF UNIQUE REFLECTIONS   : 50715                              
 200  RESOLUTION RANGE HIGH      (A) : 1.400                              
 200  RESOLUTION RANGE LOW       (A) : 40.100                             
 200  REJECTION CRITERIA  (SIGMA(I)) : 0.000                              
 200                                                                      
 200 OVERALL.                                                             
 200  COMPLETENESS FOR RANGE     (%) : 99.8                               
 200  DATA REDUNDANCY                : 7.700                              
 200  R MERGE                    (I) : 0.08600                            
 200  R SYM                      (I) : NULL                               
 200  <I/SIGMA(I)> FOR THE DATA SET  : 6.0000                             
 200                                                                      
 200 IN THE HIGHEST RESOLUTION SHELL.                                     
 200  HIGHEST RESOLUTION SHELL, RANGE HIGH (A) : 1.40                     
 200  HIGHEST RESOLUTION SHELL, RANGE LOW  (A) : 1.44                     
 200  COMPLETENESS FOR SHELL     (%) : 99.4                               
 200  DATA REDUNDANCY IN SHELL       : 7.80                               
 200  R MERGE FOR SHELL          (I) : 0.35600                            
 200  R SYM FOR SHELL            (I) : NULL                               
 200  <I/SIGMA(I)> FOR SHELL         : 1.600                              
 200                                                                      
 200 DIFFRACTION PROTOCOL: SINGLE WAVELENGTH                              
 200 METHOD USED TO DETERMINE THE STRUCTURE: MOLECULAR REPLACEMENT        
 200 SOFTWARE USED: DIRECT                                                
 200 STARTING MODEL: NULL                                                 
 200                                                                      
 200 REMARK: NULL                                                         
 280                                                                      
 280 CRYSTAL                                                              
 280 SOLVENT CONTENT, VS   (%): 45.28                                     
 280 MATTHEWS COEFFICIENT, VM (ANGSTROMS**3/DA): 2.25                     
 280                                                                      
 280 CRYSTALLIZATION CONDITIONS: 0.1 M HEPES, 2 M NH4H2PO4, PH 7.5,       
 280  VAPOR DIFFUSION, SITTING DROP, TEMPERATURE 298K                     
 290                                                                      
 290 CRYSTALLOGRAPHIC SYMMETRY                                            
 290 SYMMETRY OPERATORS FOR SPACE GROUP: P 21 21 21                       
 290                                                                      
 290      SYMOP   SYMMETRY                                                
 290     NNNMMM   OPERATOR                                                
 290       1555   X,Y,Z                                                   
 290       2555   -X+1/2,-Y,Z+1/2                                         
 290       3555   -X,Y+1/2,-Z+1/2                                         
 290       4555   X+1/2,-Y+1/2,-Z                                         
 290                                                                      
 290     WHERE NNN -> OPERATOR NUMBER                                     
 290           MMM -> TRANSLATION VECTOR                                  
 290                                                                      
 290 CRYSTALLOGRAPHIC SYMMETRY TRANSFORMATIONS                            
 290 THE FOLLOWING TRANSFORMATIONS OPERATE ON THE ATOM/HETATM             
 290 RECORDS IN THIS ENTRY TO PRODUCE CRYSTALLOGRAPHICALLY                
 290 RELATED MOLECULES.                                                   
 290   SMTRY1   1  1.000000  0.000000  0.000000        0.00000            
 290   SMTRY2   1  0.000000  1.000000  0.000000        0.00000            
 290   SMTRY3   1  0.000000  0.000000  1.000000        0.00000            
 290   SMTRY1   2 -1.000000  0.000000  0.000000       24.85150            
 290   SMTRY2   2  0.000000 -1.000000  0.000000        0.00000            
 290   SMTRY3   2  0.000000  0.000000  1.000000       37.62250            
 290   SMTRY1   3 -1.000000  0.000000  0.000000        0.00000            
 290   SMTRY2   3  0.000000  1.000000  0.000000       33.91800            
 290   SMTRY3   3  0.000000  0.000000 -1.000000       37.62250            
 290   SMTRY1   4  1.000000  0.000000  0.000000       24.85150            
 290   SMTRY2   4  0.000000 -1.000000  0.000000       33.91800            
 290   SMTRY3   4  0.000000  0.000000 -1.000000        0.00000            
 290                                                                      
 290 REMARK: NULL                                                         
 300                                                                      
 300 BIOMOLECULE: 1                                                       
 300 SEE REMARK 350 FOR THE AUTHOR PROVIDED AND/OR PROGRAM                
 300 GENERATED ASSEMBLY INFORMATION FOR THE STRUCTURE IN                  
 300 THIS ENTRY. THE REMARK MAY ALSO PROVIDE INFORMATION ON               
 300 BURIED SURFACE AREA.                                                 
 350                                                                      
 350 COORDINATES FOR A COMPLETE MULTIMER REPRESENTING THE KNOWN           
 350 BIOLOGICALLY SIGNIFICANT OLIGOMERIZATION STATE OF THE                
 350 MOLECULE CAN BE GENERATED BY APPLYING BIOMT TRANSFORMATIONS          
 350 GIVEN BELOW.  BOTH NON-CRYSTALLOGRAPHIC AND                          
 350 CRYSTALLOGRAPHIC OPERATIONS ARE GIVEN.                               
 350                                                                      
 350 BIOMOLECULE: 1                                                       
 350 AUTHOR DETERMINED BIOLOGICAL UNIT: MONOMERIC                         
 350 SOFTWARE DETERMINED QUATERNARY STRUCTURE: MONOMERIC                  
 350 SOFTWARE USED: PISA                                                  
 350 APPLY THE FOLLOWING TO CHAINS: A                                     
 350   BIOMT1   1  1.000000  0.000000  0.000000        0.00000            
 350   BIOMT2   1  0.000000  1.000000  0.000000        0.00000            
 350   BIOMT3   1  0.000000  0.000000  1.000000        0.00000            
 500                                                                      
 500 GEOMETRY AND STEREOCHEMISTRY                                         
 500 SUBTOPIC: COVALENT BOND ANGLES                                       
 500                                                                      
 500 THE STEREOCHEMICAL PARAMETERS OF THE FOLLOWING RESIDUES              
 500 HAVE VALUES WHICH DEVIATE FROM EXPECTED VALUES BY MORE               
 500 THAN 6*RMSD (M=MODEL NUMBER; RES=RESIDUE NAME; C=CHAIN               
 500 IDENTIFIER; SSEQ=SEQUENCE NUMBER; I=INSERTION CODE).                 
 500                                                                      
 500 STANDARD TABLE:                                                      
 500 FORMAT: (10X,I3,1X,A3,1X,A1,I4,A1,3(1X,A4,2X),12X,F5.1)              
 500                                                                      
 500 EXPECTED VALUES PROTEIN: ENGH AND HUBER, 1999                        
 500 EXPECTED VALUES NUCLEIC ACID: CLOWNEY ET AL 1996                     
 500                                                                      
 500  M RES CSSEQI ATM1   ATM2   ATM3                                     
 500    LEU A 185   CB  -  CG  -  CD1 ANGL. DEV. =  10.4 DEGREES          
 500    ARG A 291   NE  -  CZ  -  NH2 ANGL. DEV. =   4.2 DEGREES          
 500                                                                      
 500 REMARK: NULL                                                         
 500                                                                      
 500 GEOMETRY AND STEREOCHEMISTRY                                         
 500 SUBTOPIC: TORSION ANGLES                                             
 500                                                                      
 500 TORSION ANGLES OUTSIDE THE EXPECTED RAMACHANDRAN REGIONS:            
 500 (M=MODEL NUMBER; RES=RESIDUE NAME; C=CHAIN IDENTIFIER;               
 500 SSEQ=SEQUENCE NUMBER; I=INSERTION CODE).                             
 500                                                                      
 500 STANDARD TABLE:                                                      
 500 FORMAT:(10X,I3,1X,A3,1X,A1,I4,A1,4X,F7.2,3X,F7.2)                    
 500                                                                      
 500 EXPECTED VALUES: GJ KLEYWEGT AND TA JONES (1996). PHI/PSI-           
 500 CHOLOGY: RAMACHANDRAN REVISITED. STRUCTURE 4, 1395 - 1400            
 500                                                                      
 500  M RES CSSEQI        PSI       PHI                                   
 500    THR A  66     -165.42   -124.03                                   
 500    CYS A  83     -143.27     44.71                                   
 500    SER A 118       70.94   -150.23                                   
 500    GLU A 181     -166.79   -106.19                                   
 500    ARG A 236     -123.02   -117.84                                   
 500                                                                      
 500 REMARK: NULL                                                         
 800                                                                      
 800 SITE                                                                 
 800 SITE_IDENTIFIER: AC1                                                 
 800 EVIDENCE_CODE: SOFTWARE                                              
 800 SITE_DESCRIPTION: BINDING SITE FOR RESIDUE PO4 A 2                   
 800                                                                      
 800 SITE_IDENTIFIER: AC2                                                 
 800 EVIDENCE_CODE: SOFTWARE                                              
 800 SITE_DESCRIPTION: BINDING SITE FOR RESIDUE PO4 A 3                   
 800                                                                      
 800 SITE_IDENTIFIER: AC3                                                 
 800 EVIDENCE_CODE: SOFTWARE                                              
 800 SITE_DESCRIPTION: BINDING SITE FOR RESIDUE AIX A 1                   

>  <DBREF>  (1) 
 3N8L A   43   307  UNP    P0C5C1   BLAC_MYCTU      43    307             

>  <SEQADV>  (1) 
 3N8L ALA A  182  UNP  P0C5C1    GLU   182 ENGINEERED MUTATION            

>  <SEQRES>  (1) 
   1 A  265  ASP LEU ALA ASP ARG PHE ALA GLU LEU GLU ARG ARG TYR          
   2 A  265  ASP ALA ARG LEU GLY VAL TYR VAL PRO ALA THR GLY THR          
   3 A  265  THR ALA ALA ILE GLU TYR ARG ALA ASP GLU ARG PHE ALA          
   4 A  265  PHE CYS SER THR PHE LYS ALA PRO LEU VAL ALA ALA VAL          
   5 A  265  LEU HIS GLN ASN PRO LEU THR HIS LEU ASP LYS LEU ILE          
   6 A  265  THR TYR THR SER ASP ASP ILE ARG SER ILE SER PRO VAL          
   7 A  265  ALA GLN GLN HIS VAL GLN THR GLY MET THR ILE GLY GLN          
   8 A  265  LEU CYS ASP ALA ALA ILE ARG TYR SER ASP GLY THR ALA          
   9 A  265  ALA ASN LEU LEU LEU ALA ASP LEU GLY GLY PRO GLY GLY          
  10 A  265  GLY THR ALA ALA PHE THR GLY TYR LEU ARG SER LEU GLY          
  11 A  265  ASP THR VAL SER ARG LEU ASP ALA GLU ALA PRO GLU LEU          
  12 A  265  ASN ARG ASP PRO PRO GLY ASP GLU ARG ASP THR THR THR          
  13 A  265  PRO HIS ALA ILE ALA LEU VAL LEU GLN GLN LEU VAL LEU          
  14 A  265  GLY ASN ALA LEU PRO PRO ASP LYS ARG ALA LEU LEU THR          
  15 A  265  ASP TRP MET ALA ARG ASN THR THR GLY ALA LYS ARG ILE          
  16 A  265  ARG ALA GLY PHE PRO ALA ASP TRP LYS VAL ILE ASP LYS          
  17 A  265  THR GLY THR GLY ASP TYR GLY ARG ALA ASN ASP ILE ALA          
  18 A  265  VAL VAL TRP SER PRO THR GLY VAL PRO TYR VAL VAL ALA          
  19 A  265  VAL MET SER ASP ARG ALA GLY GLY GLY TYR ASP ALA GLU          
  20 A  265  PRO ARG GLU ALA LEU LEU ALA GLU ALA ALA THR CYS VAL          
  21 A  265  ALA GLY VAL LEU ALA                                          

>  <HET>  (1) 
 PO4  A   2       5                                                       
 PO4  A   3       5                                                       
 AIX  A   1      24                                                       

>  <HETNAM>  (1) 
     PO4 PHOSPHATE ION                                                    
     AIX (2R,4S)-2-[(1R)-1-{[(2R)-2-AMINO-2-PHENYLACETYL]AMINO}-          
   2 AIX  2-OXOETHYL]-5,5-DIMETHYL-1,3-THIAZOLIDINE-4-CARBOXYLIC          
   3 AIX  ACID                                                            

>  <HETSYN>  (1) 
     AIX AMPICILLIN (OPEN FORM)                                           

>  <FORMUL>  (1) 
   2  PO4    2(O4 P 3-)                                                   
   4  AIX    C16 H21 N3 O4 S                                              
   5  HOH   *329(H2 O)                                                    

>  <HELIX>  (1) 
   1   1 ASP A   43  ASP A   56  1                                  14    
   2   2 CYS A   83  THR A   85  5                                   3    
   3   3 PHE A   86  ASN A   98  1                                  13    
   4   4 PRO A   99  ASP A  104  5                                   6    
   5   5 THR A  110  ILE A  114  5                                   5    
   6   6 VAL A  120  HIS A  124  5                                   5    
   7   7 ILE A  131  TYR A  141  1                                  11    
   8   8 ASP A  143  GLY A  155  1                                  13    
   9   9 PRO A  157  GLY A  159  5                                   3    
  10  10 GLY A  160  LEU A  171  1                                  12    
  11  11 PRO A  183  ARG A  187  5                                   5    
  12  12 THR A  198  LEU A  211  1                                  14    
  13  13 PRO A  216  ARG A  229  1                                  14    
  14  14 ARG A  236  PHE A  241  1                                   6    
  15  15 ARG A  281  GLY A  285  5                                   5    
  16  16 ARG A  291  ALA A  307  1                                  17    

>  <SHEET>  (1) 
   1   A 5 ILE A  72  TYR A  74  0                                        
   2   A 5 ARG A  58  VAL A  63 -1  N  VAL A  61   O  TYR A  74           
   3   A 5 PRO A 272  ASP A 280 -1  O  MET A 278   N  GLY A  60           
   4   A 5 ARG A 258  TRP A 266 -1  N  VAL A 265   O  TYR A 273           
   5   A 5 LYS A 246  GLY A 254 -1  N  GLY A 252   O  ASN A 260           
   1   B 2 PHE A  80  ALA A  81  0                                        
   2   B 2 THR A 196  THR A 197 -1  O  THR A 197   N  PHE A  80           
   1   C 2 LEU A 106  ILE A 107  0                                        
   2   C 2 MET A 129  THR A 130 -1  O  MET A 129   N  ILE A 107           

>  <LINK>  (1) 
       OG  SER A  84                 C15 AIX A   1     1555   1555  1.51  

>  <CISPEP>  (1) 
   1 ALA A  182    PRO A  183          0         3.35                     

>  <SITE>  (1) 
   1 AC1  8 HOH A  24  HOH A  31  ARG A  75  GLU A  78                    
   2 AC1  8 GLU A 184  HOH A 475  HOH A 480  HOH A 561                    
   1 AC2 10 AIX A   1  ARG A  79  ARG A 187  GLU A 193                    
   2 AC2 10 ASP A 255  TYR A 286  HOH A 328  HOH A 330                    
   3 AC2 10 HOH A 507  HOH A 573                                          
   1 AC3 18 PO4 A   3  CYS A  83  SER A  84  ILE A 117                    
   2 AC3 18 SER A 142  ASN A 186  GLU A 193  ARG A 236                    
   3 AC3 18 LYS A 250  THR A 251  GLY A 252  THR A 253                    
   4 AC3 18 HOH A 326  HOH A 330  HOH A 370  HOH A 568                    
   5 AC3 18 HOH A 573  HOH A 574                                          

>  <ORIGX1>  (1) 
      1.000000  0.000000  0.000000        0.00000                         

>  <ORIGX2>  (1) 
      0.000000  1.000000  0.000000        0.00000                         

>  <ORIGX3>  (1) 
      0.000000  0.000000  1.000000        0.00000                         

>  <SCALE1>  (1) 
      0.020119  0.000000  0.000000        0.00000                         

>  <SCALE2>  (1) 
      0.000000  0.014741  0.000000        0.00000                         

>  <SCALE3>  (1) 
      0.000000  0.000000  0.013290        0.00000                         

>  <ANISOU>  (1) 
  332  N   SER A  84      465    635    588     38    -32     33       N  
  333  CA  SER A  84      414    657    642      3   -103     43       C  
  334  C   SER A  84      412    628    570    -16    -80     40       C  
  335  O   SER A  84      514    728    512    -80   -103     81       O  
  336  CB  SER A  84      423    633    841    -10     -6     24       C  
  337  OG  SER A  84      622    774   1211    130   -214    212       O  
 1996  C8  AIX A   1     1962   2521   2632    244    273    -23       C  
 1997  C5  AIX A   1     1530   2122   1925    249    231    -78       C  
 1998  C6  AIX A   1      977   1576   1306     37    -18    -74       C  
 1999  N1  AIX A   1     1010   1333   1308     55   -129   -119       N  
 2000  C2  AIX A   1     1212   1275    723    -96    -35   -264       C  
 2001  N3  AIX A   1     1288   1350   1300    -46   -111    168       N  
 2002  C4  AIX A   1     1210   1568   1656    171    -29   -318       C  
 2003  C1  AIX A   1     1292   1734   1357    -78    -64    -13       C  
 2004  C3  AIX A   1     1104   1422   1491     83   -124   -103       C  
 2005  C7  AIX A   1     2031   2382   2316    350    274    -53       C  
 2006  C9  AIX A   1     2253   2584   2518     29    114    -28       C  
 2007  C10 AIX A   1     2063   2518   2518      0    132    -33       C  
 2008  C11 AIX A   1     1951   2371   2145      8    126   -156       C  
 2009  C12 AIX A   1      882   1375   1316   -126   -115    253       C  
 2010  C13 AIX A   1      997   1400   1425     60    -75    -57       C  
 2011  C14 AIX A   1      981   1303   1335     39    -43    -35       C  
 2012  C15 AIX A   1      896   1217   1227     73    -75    -16       C  
 2013  C16 AIX A   1     1296   1697   1351   -145    -39    -29       C  
 2014  N2  AIX A   1     1693   1545   2270    167    156   -367       N  
 2015  O1  AIX A   1     1174   1747    994    -11    -20     85       O  
 2016  O2  AIX A   1     1416   1387   1261    282   -234     40       O  
 2017  O3  AIX A   1     1066   1540   1637      1    -95     43       O  
 2018  O4  AIX A   1      804   1088   1200     55    -38    158       O  
 2019  S1  AIX A   1     1058   1665   1724    145   -168   -201       S  

>  <MASTER>  (1) 
      290    0    3   16    9    0   10    6 2347    1   35   21          

$$$$
