start_structures/Ligand_Substrate/Ligand_Complex_Stripped/PNM_1IYQ.pdb
     RDKit          3D

 29 30  0  0  1  0  0  0  0  0999 V2000
   48.7962   51.8774   46.3370 N   0  0  0  0  0  0  0  0  0  0  0  0
   47.4463   51.3816   46.5421 C   0  0  2  0  0  0  0  0  0  0  0  0
   47.4041   49.8866   46.4408 C   0  0  0  0  0  0  0  0  0  0  0  0
   46.4743   49.2687   46.9382 O   0  0  0  0  0  0  0  0  0  0  0  0
   46.5157   52.0033   45.5064 C   0  0  0  0  0  0  0  0  0  0  0  0
   46.1633   53.3323   45.8756 O   0  0  0  0  0  0  0  0  0  0  0  0
   44.5671   52.6688   47.4078 O   0  0  0  0  0  0  0  0  0  0  0  0
   45.2484   53.5995   46.8951 C   0  0  0  0  0  0  0  0  0  0  0  0
   43.0053   55.3790   46.3214 N   0  0  0  0  0  0  0  0  0  0  0  0
   41.8623   56.2640   46.4500 C   0  0  2  0  0  0  0  0  0  0  0  0
   41.1283   56.3969   45.1491 C   0  0  0  0  0  0  0  0  0  0  0  0
   39.8723   56.4705   45.1469 O   0  0  0  0  0  0  0  0  0  0  0  0
   41.8248   56.4739   43.9487 O   0  0  0  0  0  0  0  0  0  0  0  0
   42.3353   57.5802   47.0582 C   0  0  0  0  0  0  0  0  0  0  0  0
   42.9478   58.5231   46.0319 C   0  0  0  0  0  0  0  0  0  0  0  0
   41.1894   58.2739   47.7680 C   0  0  0  0  0  0  0  0  0  0  0  0
   43.6130   57.1389   48.2603 S   0  0  0  0  0  0  0  0  0  0  0  0
   43.6985   55.4354   47.6027 C   0  0  2  0  0  0  0  0  0  0  0  0
   45.1528   54.9916   47.4399 C   0  0  1  0  0  0  0  0  0  0  0  0
   45.8425   55.0388   48.7222 N   0  0  0  0  0  0  0  0  0  0  0  0
   47.2680   55.0334   48.8163 C   0  0  0  0  0  0  0  0  0  0  0  0
   47.9788   55.2573   47.8000 O   0  0  0  0  0  0  0  0  0  0  0  0
   47.9170   54.6800   50.1091 C   0  0  0  0  0  0  0  0  0  0  0  0
   48.1557   53.2087   50.1669 C   0  0  0  0  0  0  0  0  0  0  0  0
   47.1233   52.3430   50.5485 C   0  0  0  0  0  0  0  0  0  0  0  0
   47.3354   50.9611   50.5577 C   0  0  0  0  0  0  0  0  0  0  0  0
   48.5779   50.4420   50.1812 C   0  0  0  0  0  0  0  0  0  0  0  0
   49.6080   51.3044   49.7939 C   0  0  0  0  0  0  0  0  0  0  0  0
   49.3962   52.6866   49.7834 C   0  0  0  0  0  0  0  0  0  0  0  0
  2  1  1  6
  2  5  1  0
  3  2  1  0
  4  3  2  0
  5  6  1  0
  6  8  1  0
  7  8  2  0
  9 10  1  0
 18  9  1  6
 10 11  1  1
 10 14  1  0
 11 12  2  0
 11 13  1  0
 14 15  1  0
 14 16  1  0
 14 17  1  0
 17 18  1  0
 18 19  1  0
 19  8  1  0
 19 20  1  6
 20 21  1  0
 21 22  2  0
 21 23  1  0
 23 24  1  0
 24 25  2  0
 24 29  1  0
 25 26  1  0
 26 27  2  0
 27 28  1  0
 28 29  2  0
M  END
>  <HEADER>  (1) 
    HYDROLASE                               04-SEP-02   1IYQ              

>  <TITLE>  (1) 
    TOHO-1 BETA-LACTAMASE IN COMPLEX WITH BENZYLPENICILLIN                

>  <COMPND>  (1) 
    MOL_ID: 1;                                                            
   2 MOLECULE: TOHO-1 BETA-LACTAMASE;                                     
   3 CHAIN: A;                                                            
   4 EC: 3.5.2.6;                                                         
   5 ENGINEERED: YES;                                                     
   6 MUTATION: YES                                                        

>  <SOURCE>  (1) 
    MOL_ID: 1;                                                            
   2 ORGANISM_SCIENTIFIC: ESCHERICHIA COLI;                               
   3 ORGANISM_TAXID: 562;                                                 
   4 EXPRESSION_SYSTEM: ESCHERICHIA COLI;                                 
   5 EXPRESSION_SYSTEM_TAXID: 562;                                        
   6 EXPRESSION_SYSTEM_VECTOR_TYPE: PLASMID;                              
   7 EXPRESSION_SYSTEM_PLASMID: PUC119                                    

>  <KEYWDS>  (1) 
    BETA-LACTAMASE, ACYL-ENZYME, COMPLEX, BENZYLPENICILLIN, PENICILLIN G, 
   2 HYDROLASE                                                            

>  <EXPDTA>  (1) 
    X-RAY DIFFRACTION                                                     

>  <AUTHOR>  (1) 
    T.SHIMAMURA,A.IBUKA,S.FUSHINOBU,T.WAKAGI,M.ISHIGURO,Y.ISHII,          
   2 H.MATSUZAWA                                                          

>  <REVDAT>  (1) 
   3   10-NOV-21 1IYQ    1       REMARK SEQADV LINK                       
   2   24-FEB-09 1IYQ    1       VERSN                                    
   1   11-DEC-02 1IYQ    0                                                

>  <JRNL>  (1) 
      AUTH   T.SHIMAMURA,A.IBUKA,S.FUSHINOBU,T.WAKAGI,M.ISHIGURO,Y.ISHII, 
      AUTH 2 H.MATSUZAWA                                                  
      TITL   ACYL-INTERMEDIATE STRUCTURES OF THE EXTENDED-SPECTRUM CLASS  
      TITL 2 A BETA -LACTAMASE, TOHO-1, IN COMPLEX WITH CEFOTAXIME,       
      TITL 3 CEPHALOTHIN, AND BENZYLPENICILLIN.                           
      REF    J.BIOL.CHEM.                  V. 277 46601 2002              
      REFN                   ISSN 0021-9258                               
      PMID   12221102                                                     
      DOI    10.1074/JBC.M207884200                                       

>  <REMARK>  (1) 
   2                                                                      
   2 RESOLUTION.    2.10 ANGSTROMS.                                       
   3                                                                      
   3 REFINEMENT.                                                          
   3   PROGRAM     : CNS                                                  
   3   AUTHORS     : BRUNGER,ADAMS,CLORE,DELANO,GROS,GROSSE-              
   3               : KUNSTLEVE,JIANG,KUSZEWSKI,NILGES,PANNU,              
   3               : READ,RICE,SIMONSON,WARREN                            
   3                                                                      
   3  REFINEMENT TARGET : NULL                                            
   3                                                                      
   3  DATA USED IN REFINEMENT.                                            
   3   RESOLUTION RANGE HIGH (ANGSTROMS) : 2.10                           
   3   RESOLUTION RANGE LOW  (ANGSTROMS) : 40.00                          
   3   DATA CUTOFF            (SIGMA(F)) : 3.000                          
   3   DATA CUTOFF HIGH         (ABS(F)) : NULL                           
   3   DATA CUTOFF LOW          (ABS(F)) : NULL                           
   3   COMPLETENESS (WORKING+TEST)   (%) : NULL                           
   3   NUMBER OF REFLECTIONS             : 17074                          
   3                                                                      
   3  FIT TO DATA USED IN REFINEMENT.                                     
   3   CROSS-VALIDATION METHOD          : NULL                            
   3   FREE R VALUE TEST SET SELECTION  : RANDOM                          
   3   R VALUE            (WORKING SET) : 0.192                           
   3   FREE R VALUE                     : 0.227                           
   3   FREE R VALUE TEST SET SIZE   (%) : NULL                            
   3   FREE R VALUE TEST SET COUNT      : NULL                            
   3   ESTIMATED ERROR OF FREE R VALUE  : NULL                            
   3                                                                      
   3  FIT IN THE HIGHEST RESOLUTION BIN.                                  
   3   TOTAL NUMBER OF BINS USED           : NULL                         
   3   BIN RESOLUTION RANGE HIGH       (A) : NULL                         
   3   BIN RESOLUTION RANGE LOW        (A) : NULL                         
   3   BIN COMPLETENESS (WORKING+TEST) (%) : NULL                         
   3   REFLECTIONS IN BIN    (WORKING SET) : NULL                         
   3   BIN R VALUE           (WORKING SET) : NULL                         
   3   BIN FREE R VALUE                    : NULL                         
   3   BIN FREE R VALUE TEST SET SIZE  (%) : NULL                         
   3   BIN FREE R VALUE TEST SET COUNT     : NULL                         
   3   ESTIMATED ERROR OF BIN FREE R VALUE : NULL                         
   3                                                                      
   3  NUMBER OF NON-HYDROGEN ATOMS USED IN REFINEMENT.                    
   3   PROTEIN ATOMS            : 1975                                    
   3   NUCLEIC ACID ATOMS       : 0                                       
   3   HETEROGEN ATOMS          : 38                                      
   3   SOLVENT ATOMS            : 155                                     
   3                                                                      
   3  B VALUES.                                                           
   3   FROM WILSON PLOT           (A**2) : NULL                           
   3   MEAN B VALUE      (OVERALL, A**2) : NULL                           
   3   OVERALL ANISOTROPIC B VALUE.                                       
   3    B11 (A**2) : NULL                                                 
   3    B22 (A**2) : NULL                                                 
   3    B33 (A**2) : NULL                                                 
   3    B12 (A**2) : NULL                                                 
   3    B13 (A**2) : NULL                                                 
   3    B23 (A**2) : NULL                                                 
   3                                                                      
   3  ESTIMATED COORDINATE ERROR.                                         
   3   ESD FROM LUZZATI PLOT        (A) : NULL                            
   3   ESD FROM SIGMAA              (A) : NULL                            
   3   LOW RESOLUTION CUTOFF        (A) : NULL                            
   3                                                                      
   3  CROSS-VALIDATED ESTIMATED COORDINATE ERROR.                         
   3   ESD FROM C-V LUZZATI PLOT    (A) : NULL                            
   3   ESD FROM C-V SIGMAA          (A) : NULL                            
   3                                                                      
   3  RMS DEVIATIONS FROM IDEAL VALUES.                                   
   3   BOND LENGTHS                 (A) : 0.007                           
   3   BOND ANGLES            (DEGREES) : 1.400                           
   3   DIHEDRAL ANGLES        (DEGREES) : NULL                            
   3   IMPROPER ANGLES        (DEGREES) : NULL                            
   3                                                                      
   3  ISOTROPIC THERMAL MODEL : NULL                                      
   3                                                                      
   3  ISOTROPIC THERMAL FACTOR RESTRAINTS.    RMS    SIGMA                
   3   MAIN-CHAIN BOND              (A**2) : NULL  ; NULL                 
   3   MAIN-CHAIN ANGLE             (A**2) : NULL  ; NULL                 
   3   SIDE-CHAIN BOND              (A**2) : NULL  ; NULL                 
   3   SIDE-CHAIN ANGLE             (A**2) : NULL  ; NULL                 
   3                                                                      
   3  BULK SOLVENT MODELING.                                              
   3   METHOD USED : NULL                                                 
   3   KSOL        : NULL                                                 
   3   BSOL        : NULL                                                 
   3                                                                      
   3  NCS MODEL : NULL                                                    
   3                                                                      
   3  NCS RESTRAINTS.                         RMS   SIGMA/WEIGHT          
   3   GROUP  1  POSITIONAL            (A) : NULL  ; NULL                 
   3   GROUP  1  B-FACTOR           (A**2) : NULL  ; NULL                 
   3                                                                      
   3  PARAMETER FILE  1  : NULL                                           
   3  TOPOLOGY FILE  1   : NULL                                           
   3                                                                      
   3  OTHER REFINEMENT REMARKS: NULL                                      
   4                                                                      
   4 1IYQ COMPLIES WITH FORMAT V. 3.30, 13-JUL-11                         
 100                                                                      
 100 THIS ENTRY HAS BEEN PROCESSED BY PDBJ ON 06-SEP-02.                  
 100 THE DEPOSITION ID IS D_1000005416.                                   
 200                                                                      
 200 EXPERIMENTAL DETAILS                                                 
 200  EXPERIMENT TYPE                : X-RAY DIFFRACTION                  
 200  DATE OF DATA COLLECTION        : NULL                               
 200  TEMPERATURE           (KELVIN) : NULL                               
 200  PH                             : NULL                               
 200  NUMBER OF CRYSTALS USED        : 1                                  
 200                                                                      
 200  SYNCHROTRON              (Y/N) : Y                                  
 200  RADIATION SOURCE               : PHOTON FACTORY                     
 200  BEAMLINE                       : BL-6A                              
 200  X-RAY GENERATOR MODEL          : NULL                               
 200  MONOCHROMATIC OR LAUE    (M/L) : M                                  
 200  WAVELENGTH OR RANGE        (A) : NULL                               
 200  MONOCHROMATOR                  : NULL                               
 200  OPTICS                         : NULL                               
 200                                                                      
 200  DETECTOR TYPE                  : IMAGE PLATE                        
 200  DETECTOR MANUFACTURER          : FUJI                               
 200  INTENSITY-INTEGRATION SOFTWARE : DENZO                              
 200  DATA SCALING SOFTWARE          : SCALEPACK                          
 200                                                                      
 200  NUMBER OF UNIQUE REFLECTIONS   : 26625                              
 200  RESOLUTION RANGE HIGH      (A) : 1.800                              
 200  RESOLUTION RANGE LOW       (A) : 40.000                             
 200  REJECTION CRITERIA  (SIGMA(I)) : 0.100                              
 200                                                                      
 200 OVERALL.                                                             
 200  COMPLETENESS FOR RANGE     (%) : 92.3                               
 200  DATA REDUNDANCY                : NULL                               
 200  R MERGE                    (I) : 0.12800                            
 200  R SYM                      (I) : NULL                               
 200  <I/SIGMA(I)> FOR THE DATA SET  : NULL                               
 200                                                                      
 200 IN THE HIGHEST RESOLUTION SHELL.                                     
 200  HIGHEST RESOLUTION SHELL, RANGE HIGH (A) : NULL                     
 200  HIGHEST RESOLUTION SHELL, RANGE LOW  (A) : NULL                     
 200  COMPLETENESS FOR SHELL     (%) : NULL                               
 200  DATA REDUNDANCY IN SHELL       : NULL                               
 200  R MERGE FOR SHELL          (I) : NULL                               
 200  R SYM FOR SHELL            (I) : NULL                               
 200  <I/SIGMA(I)> FOR SHELL         : NULL                               
 200                                                                      
 200 DIFFRACTION PROTOCOL: SINGLE WAVELENGTH                              
 200 METHOD USED TO DETERMINE THE STRUCTURE: MOLECULAR REPLACEMENT        
 200 SOFTWARE USED: CNS                                                   
 200 STARTING MODEL: NULL                                                 
 200                                                                      
 200 REMARK: NULL                                                         
 280                                                                      
 280 CRYSTAL                                                              
 280 SOLVENT CONTENT, VS   (%): 50.55                                     
 280 MATTHEWS COEFFICIENT, VM (ANGSTROMS**3/DA): 2.51                     
 280                                                                      
 280 CRYSTALLIZATION CONDITIONS: AMMONIUM SULFATE, VAPOR DIFFUSION,       
 280  HANGING DROP, TEMPERATURE 300K                                      
 290                                                                      
 290 CRYSTALLOGRAPHIC SYMMETRY                                            
 290 SYMMETRY OPERATORS FOR SPACE GROUP: P 32 2 1                         
 290                                                                      
 290      SYMOP   SYMMETRY                                                
 290     NNNMMM   OPERATOR                                                
 290       1555   X,Y,Z                                                   
 290       2555   -Y,X-Y,Z+2/3                                            
 290       3555   -X+Y,-X,Z+1/3                                           
 290       4555   Y,X,-Z                                                  
 290       5555   X-Y,-Y,-Z+1/3                                           
 290       6555   -X,-X+Y,-Z+2/3                                          
 290                                                                      
 290     WHERE NNN -> OPERATOR NUMBER                                     
 290           MMM -> TRANSLATION VECTOR                                  
 290                                                                      
 290 CRYSTALLOGRAPHIC SYMMETRY TRANSFORMATIONS                            
 290 THE FOLLOWING TRANSFORMATIONS OPERATE ON THE ATOM/HETATM             
 290 RECORDS IN THIS ENTRY TO PRODUCE CRYSTALLOGRAPHICALLY                
 290 RELATED MOLECULES.                                                   
 290   SMTRY1   1  1.000000  0.000000  0.000000        0.00000            
 290   SMTRY2   1  0.000000  1.000000  0.000000        0.00000            
 290   SMTRY3   1  0.000000  0.000000  1.000000        0.00000            
 290   SMTRY1   2 -0.500000 -0.866025  0.000000        0.00000            
 290   SMTRY2   2  0.866025 -0.500000  0.000000        0.00000            
 290   SMTRY3   2  0.000000  0.000000  1.000000       66.31133            
 290   SMTRY1   3 -0.500000  0.866025  0.000000        0.00000            
 290   SMTRY2   3 -0.866025 -0.500000  0.000000        0.00000            
 290   SMTRY3   3  0.000000  0.000000  1.000000       33.15567            
 290   SMTRY1   4 -0.500000  0.866025  0.000000        0.00000            
 290   SMTRY2   4  0.866025  0.500000  0.000000        0.00000            
 290   SMTRY3   4  0.000000  0.000000 -1.000000        0.00000            
 290   SMTRY1   5  1.000000  0.000000  0.000000        0.00000            
 290   SMTRY2   5  0.000000 -1.000000  0.000000        0.00000            
 290   SMTRY3   5  0.000000  0.000000 -1.000000       33.15567            
 290   SMTRY1   6 -0.500000 -0.866025  0.000000        0.00000            
 290   SMTRY2   6 -0.866025  0.500000  0.000000        0.00000            
 290   SMTRY3   6  0.000000  0.000000 -1.000000       66.31133            
 290                                                                      
 290 REMARK: NULL                                                         
 300                                                                      
 300 BIOMOLECULE: 1                                                       
 300 SEE REMARK 350 FOR THE AUTHOR PROVIDED AND/OR PROGRAM                
 300 GENERATED ASSEMBLY INFORMATION FOR THE STRUCTURE IN                  
 300 THIS ENTRY. THE REMARK MAY ALSO PROVIDE INFORMATION ON               
 300 BURIED SURFACE AREA.                                                 
 350                                                                      
 350 COORDINATES FOR A COMPLETE MULTIMER REPRESENTING THE KNOWN           
 350 BIOLOGICALLY SIGNIFICANT OLIGOMERIZATION STATE OF THE                
 350 MOLECULE CAN BE GENERATED BY APPLYING BIOMT TRANSFORMATIONS          
 350 GIVEN BELOW.  BOTH NON-CRYSTALLOGRAPHIC AND                          
 350 CRYSTALLOGRAPHIC OPERATIONS ARE GIVEN.                               
 350                                                                      
 350 BIOMOLECULE: 1                                                       
 350 AUTHOR DETERMINED BIOLOGICAL UNIT: MONOMERIC                         
 350 APPLY THE FOLLOWING TO CHAINS: A                                     
 350   BIOMT1   1  1.000000  0.000000  0.000000        0.00000            
 350   BIOMT2   1  0.000000  1.000000  0.000000        0.00000            
 350   BIOMT3   1  0.000000  0.000000  1.000000        0.00000            
 465                                                                      
 465 MISSING RESIDUES                                                     
 465 THE FOLLOWING RESIDUES WERE NOT LOCATED IN THE                       
 465 EXPERIMENT. (M=MODEL NUMBER; RES=RESIDUE NAME; C=CHAIN               
 465 IDENTIFIER; SSSEQ=SEQUENCE NUMBER; I=INSERTION CODE.)                
 465                                                                      
 465   M RES C SSSEQI                                                     
 465     ALA A    26                                                      
 500                                                                      
 500 GEOMETRY AND STEREOCHEMISTRY                                         
 500 SUBTOPIC: COVALENT BOND ANGLES                                       
 500                                                                      
 500 THE STEREOCHEMICAL PARAMETERS OF THE FOLLOWING RESIDUES              
 500 HAVE VALUES WHICH DEVIATE FROM EXPECTED VALUES BY MORE               
 500 THAN 6*RMSD (M=MODEL NUMBER; RES=RESIDUE NAME; C=CHAIN               
 500 IDENTIFIER; SSEQ=SEQUENCE NUMBER; I=INSERTION CODE).                 
 500                                                                      
 500 STANDARD TABLE:                                                      
 500 FORMAT: (10X,I3,1X,A3,1X,A1,I4,A1,3(1X,A4,2X),12X,F5.1)              
 500                                                                      
 500 EXPECTED VALUES PROTEIN: ENGH AND HUBER, 1999                        
 500 EXPECTED VALUES NUCLEIC ACID: CLOWNEY ET AL 1996                     
 500                                                                      
 500  M RES CSSEQI ATM1   ATM2   ATM3                                     
 500    PRO A 177   C   -  N   -  CA  ANGL. DEV. =   9.2 DEGREES          
 500                                                                      
 500 REMARK: NULL                                                         
 500                                                                      
 500 GEOMETRY AND STEREOCHEMISTRY                                         
 500 SUBTOPIC: TORSION ANGLES                                             
 500                                                                      
 500 TORSION ANGLES OUTSIDE THE EXPECTED RAMACHANDRAN REGIONS:            
 500 (M=MODEL NUMBER; RES=RESIDUE NAME; C=CHAIN IDENTIFIER;               
 500 SSEQ=SEQUENCE NUMBER; I=INSERTION CODE).                             
 500                                                                      
 500 STANDARD TABLE:                                                      
 500 FORMAT:(10X,I3,1X,A3,1X,A1,I4,A1,4X,F7.2,3X,F7.2)                    
 500                                                                      
 500 EXPECTED VALUES: GJ KLEYWEGT AND TA JONES (1996). PHI/PSI-           
 500 CHOLOGY: RAMACHANDRAN REVISITED. STRUCTURE 4, 1395 - 1400            
 500                                                                      
 500  M RES CSSEQI        PSI       PHI                                   
 500    CYS A  69     -145.32     56.72                                   
 500    LEU A  90      -72.20    -35.57                                   
 500    VAL A 103     -142.87   -121.98                                   
 500    LYS A 111      -18.81    -49.18                                   
 500    ASN A 114       -4.58     89.78                                   
 500    SER A 220     -129.52    -90.99                                   
 500                                                                      
 500 REMARK: NULL                                                         
 800                                                                      
 800 SITE                                                                 
 800 SITE_IDENTIFIER: AC1                                                 
 800 EVIDENCE_CODE: SOFTWARE                                              
 800 SITE_DESCRIPTION: BINDING SITE FOR RESIDUE SO4 A 401                 
 800                                                                      
 800 SITE_IDENTIFIER: AC2                                                 
 800 EVIDENCE_CODE: SOFTWARE                                              
 800 SITE_DESCRIPTION: BINDING SITE FOR RESIDUE SO4 A 402                 
 800                                                                      
 800 SITE_IDENTIFIER: AC3                                                 
 800 EVIDENCE_CODE: SOFTWARE                                              
 800 SITE_DESCRIPTION: BINDING SITE FOR RESIDUE SO4 A 403                 
 800                                                                      
 800 SITE_IDENTIFIER: AC4                                                 
 800 EVIDENCE_CODE: SOFTWARE                                              
 800 SITE_DESCRIPTION: BINDING SITE FOR RESIDUE PNM A 301                 
 900                                                                      
 900 RELATED ENTRIES                                                      
 900 RELATED ID: 1IYO   RELATED DB: PDB                                   
 900 1IYO CONTAINS CRYSTAL STRUCTURE OF THE SAME PROTEIN COMPLEXED WITH   
 900 CEF AND SO4                                                          
 900 RELATED ID: 1IYP   RELATED DB: PDB                                   
 900 1IYP CONTAINS CRYSTAL STRUCTURE OF THE SAME PROTEIN COMPLEXED WITH   
 900 CEP AND SO4                                                          

>  <DBREF>  (1) 
 1IYQ A   26   290  UNP    Q47066   BLT1_ECOLI      30    291             

>  <SEQADV>  (1) 
 1IYQ ALA A  166  UNP  Q47066    GLU   169 ENGINEERED MUTATION            

>  <SEQRES>  (1) 
   1 A  262  ALA ASN SER VAL GLN GLN GLN LEU GLU ALA LEU GLU LYS          
   2 A  262  SER SER GLY GLY ARG LEU GLY VAL ALA LEU ILE ASN THR          
   3 A  262  ALA ASP ASN SER GLN ILE LEU TYR ARG ALA ASP GLU ARG          
   4 A  262  PHE ALA MET CYS SER THR SER LYS VAL MET ALA ALA ALA          
   5 A  262  ALA VAL LEU LYS GLN SER GLU SER ASP LYS HIS LEU LEU          
   6 A  262  ASN GLN ARG VAL GLU ILE LYS LYS SER ASP LEU VAL ASN          
   7 A  262  TYR ASN PRO ILE ALA GLU LYS HIS VAL ASN GLY THR MET          
   8 A  262  THR LEU ALA GLU LEU GLY ALA ALA ALA LEU GLN TYR SER          
   9 A  262  ASP ASN THR ALA MET ASN LYS LEU ILE ALA HIS LEU GLY          
  10 A  262  GLY PRO ASP LYS VAL THR ALA PHE ALA ARG SER LEU GLY          
  11 A  262  ASP GLU THR PHE ARG LEU ASP ARG THR ALA PRO THR LEU          
  12 A  262  ASN THR ALA ILE PRO GLY ASP PRO ARG ASP THR THR THR          
  13 A  262  PRO LEU ALA MET ALA GLN THR LEU LYS ASN LEU THR LEU          
  14 A  262  GLY LYS ALA LEU ALA GLU THR GLN ARG ALA GLN LEU VAL          
  15 A  262  THR TRP LEU LYS GLY ASN THR THR GLY SER ALA SER ILE          
  16 A  262  ARG ALA GLY LEU PRO LYS SER TRP VAL VAL GLY ASP LYS          
  17 A  262  THR GLY SER GLY ASP TYR GLY THR THR ASN ASP ILE ALA          
  18 A  262  VAL ILE TRP PRO GLU ASN HIS ALA PRO LEU VAL LEU VAL          
  19 A  262  THR TYR PHE THR GLN PRO GLU GLN LYS ALA GLU ARG ARG          
  20 A  262  ARG ASP ILE LEU ALA ALA ALA ALA LYS ILE VAL THR HIS          
  21 A  262  GLY PHE                                                      

>  <HET>  (1) 
 SO4  A 401       5                                                       
 SO4  A 402       5                                                       
 SO4  A 403       5                                                       
 PNM  A 301      23                                                       

>  <HETNAM>  (1) 
     SO4 SULFATE ION                                                      
     PNM OPEN FORM - PENICILLIN G                                         

>  <FORMUL>  (1) 
   2  SO4    3(O4 S 2-)                                                   
   5  PNM    C16 H20 N2 O4 S                                              
   6  HOH   *155(H2 O)                                                    

>  <HELIX>  (1) 
   1   1 SER A   28  GLY A   41  1                                  14    
   2   2 CYS A   69  THR A   71  5                                   3    
   3   3 SER A   72  GLU A   85  1                                  14    
   4   4 HIS A   89  ASN A   92  5                                   4    
   5   5 ALA A  109  VAL A  113  5                                   5    
   6   6 LEU A  119  TYR A  129  1                                  11    
   7   7 ASP A  131  GLY A  143  1                                  13    
   8   8 GLY A  144  LEU A  155  1                                  12    
   9   9 PRO A  167  THR A  171  5                                   5    
  10  10 THR A  182  LEU A  195  1                                  14    
  11  11 ALA A  200  GLY A  213  1                                  14    
  12  12 SER A  220  LEU A  225  5                                   6    
  13  13 ARG A  275  HIS A  288  1                                  14    

>  <SHEET>  (1) 
   1   A 5 GLN A  56  TYR A  60  0                                        
   2   A 5 ARG A  43  ASN A  50 -1  N  VAL A  46   O  TYR A  60           
   3   A 5 LEU A 259  THR A 266 -1  O  TYR A 264   N  GLY A  45           
   4   A 5 THR A 243  TRP A 251 -1  N  ILE A 250   O  LEU A 259           
   5   A 5 VAL A 230  GLY A 238 -1  N  VAL A 230   O  TRP A 251           
   1   B 2 PHE A  66  ALA A  67  0                                        
   2   B 2 THR A 180  THR A 181 -1  O  THR A 181   N  PHE A  66           
   1   C 2 ARG A  94  ILE A  97  0                                        
   2   C 2 GLY A 115  THR A 118 -1  O  MET A 117   N  VAL A  95           

>  <LINK>  (1) 
       OG  SER A  70                 C7  PNM A 301     1555   1555  1.37  

>  <CISPEP>  (1) 
   1 ALA A  166    PRO A  167          0        -0.08                     

>  <SITE>  (1) 
   1 AC1  4 LYS A 197  GLU A 273  ARG A 274  HOH A 596                    
   1 AC2 10 LYS A  82  ARG A 274  ARG A 275  ARG A 276                    
   2 AC2 10 ASP A 277  HOH A 543  HOH A 551  HOH A 565                    
   3 AC2 10 HOH A 611  HOH A 637                                          
   1 AC3  7 TRP A 229  PRO A 252  GLU A 254  ASN A 255                    
   2 AC3  7 HIS A 256  PHE A 290  HOH A 654                               
   1 AC4 12 CYS A  69  SER A  70  ASN A 104  TYR A 105                    
   2 AC4 12 SER A 130  ASN A 132  ASN A 170  LYS A 234                    
   3 AC4 12 THR A 235  GLY A 236  SER A 237  HOH A 552                    

>  <ORIGX1>  (1) 
      1.000000  0.000000  0.000000        0.00000                         

>  <ORIGX2>  (1) 
      0.000000  1.000000  0.000000        0.00000                         

>  <ORIGX3>  (1) 
      0.000000  0.000000  1.000000        0.00000                         

>  <SCALE1>  (1) 
      0.013736  0.007931  0.000000        0.00000                         

>  <SCALE2>  (1) 
      0.000000  0.015861  0.000000        0.00000                         

>  <SCALE3>  (1) 
      0.000000  0.000000  0.010054        0.00000                         

>  <MASTER>  (1) 
      291    0    4   13    9    0    9    6 2168    1   39   21          

$$$$
