start_structures/Ligand_Substrate/Ligand_Complex_Stripped/4J6_6P9C.pdb
     RDKit          3D

 33 34  0  0  1  0  0  0  0  0999 V2000
   48.7969   51.8773   46.3358 N   0  0  0  0  0  0  0  0  0  0  0  0
   47.4475   51.3816   46.5445 C   0  0  2  0  0  0  0  0  0  0  0  0
   47.4043   49.8865   46.4403 C   0  0  0  0  0  0  0  0  0  0  0  0
   46.4739   49.2682   46.9362 O   0  0  0  0  0  0  0  0  0  0  0  0
   46.5148   52.0023   45.5117 C   0  0  0  0  0  0  0  0  0  0  0  0
   46.1627   53.3341   45.8716 O   0  0  0  0  0  0  0  0  0  0  0  0
   46.8756   55.2725   48.7936 C   0  0  0  0  0  0  0  0  0  0  0  0
   42.0469   54.4417   47.0951 C   0  0  0  0  0  0  0  0  0  0  0  0
   39.1475   54.8500   37.6769 N   0  0  0  0  0  0  0  0  0  0  0  0
   44.7119   52.6875   47.5504 O   0  0  0  0  0  0  0  0  0  0  0  0
   45.5284   55.1708   42.2121 O   0  0  0  0  0  0  0  0  0  0  0  0
   37.1407   55.0096   39.3793 O   0  0  0  0  0  0  0  0  0  0  0  0
   38.0594   52.7837   38.9004 O   0  0  0  0  0  0  0  0  0  0  0  0
   43.5764   54.0840   41.7206 O   0  0  0  0  0  0  0  0  0  0  0  0
   45.8448   57.1797   47.8380 O   0  0  0  0  0  0  0  0  0  0  0  0
   45.2556   53.6183   46.8971 C   0  0  0  0  0  0  0  0  0  0  0  0
   40.0023   53.0247   44.9285 C   0  0  0  0  0  0  0  0  0  0  0  0
   38.8304   53.8696   41.6192 C   0  0  0  0  0  0  0  0  0  0  0  0
   40.8632   52.8892   42.6769 C   0  0  0  0  0  0  0  0  0  0  0  0
   44.7181   55.6355   44.8313 N   0  0  0  0  0  0  0  0  0  0  0  0
   39.0373   53.6454   44.0331 N   0  0  0  0  0  0  0  0  0  0  0  0
   39.4922   54.3983   40.4369 N   0  0  0  0  0  0  0  0  0  0  0  0
   42.7458   52.6532   44.6988 S   0  0  0  0  0  0  0  0  0  0  0  0
   44.4088   54.7523   42.6087 C   0  0  0  0  0  0  0  0  0  0  0  0
   43.9865   54.9740   43.9983 C   0  0  0  0  0  0  0  0  0  0  0  0
   46.1783   55.8500   47.5739 C   0  0  2  0  0  0  0  0  0  0  0  0
   42.6667   55.1969   45.9224 C   0  0  1  0  0  0  0  0  0  0  0  0
   39.7701   53.9291   42.8087 C   0  0  2  0  0  0  0  0  0  0  0  0
   41.0537   52.3492   44.0726 C   0  0  1  0  0  0  0  0  0  0  0  0
   44.9198   55.0447   47.2323 C   0  0  1  0  0  0  0  0  0  0  0  0
   44.0852   55.7435   46.1347 C   0  0  1  0  0  0  0  0  0  0  0  0
   42.6957   54.4838   44.5629 C   0  0  0  0  0  0  0  0  0  0  0  0
   38.3986   54.2336   39.1056 S   0  0  0  0  0  0  0  0  0  0  0  0
  2  5  1  0
  2  1  1  6
  3  2  1  0
  4  3  2  0
  5  6  1  0
  6 16  1  0
  9 33  1  0
 10 16  2  0
 11 24  2  0
 12 33  2  0
 13 33  2  0
 14 24  1  0
 15 26  1  0
 17 21  1  0
 17 29  1  0
 18 22  1  0
 19 28  1  0
 19 29  1  0
 20 25  2  0
 31 20  1  1
 21 28  1  0
 22 33  1  0
 24 25  1  0
 25 32  1  0
 26  7  1  6
 26 30  1  0
 27  8  1  6
 27 31  1  0
 27 32  1  0
 28 18  1  6
 29 23  1  6
 30 16  1  1
 31 30  1  0
 32 23  1  0
M  END
>  <HEADER>  (1) 
    HYDROLASE/ANTIBIOTIC                    10-JUN-19   6P9C              

>  <TITLE>  (1) 
    OXA-48 CARBAPANEMASE, DORIPENEM COMPLEX                               

>  <COMPND>  (1) 
    MOL_ID: 1;                                                            
   2 MOLECULE: BETA-LACTAMASE;                                            
   3 CHAIN: A, B;                                                         
   4 EC: 3.5.2.6;                                                         
   5 ENGINEERED: YES                                                      

>  <SOURCE>  (1) 
    MOL_ID: 1;                                                            
   2 ORGANISM_SCIENTIFIC: KLEBSIELLA PNEUMONIAE;                          
   3 ORGANISM_TAXID: 573;                                                 
   4 GENE: BLA OXA-48, BLAOXA-48, KPE71T_00045;                           
   5 EXPRESSION_SYSTEM: ESCHERICHIA COLI;                                 
   6 EXPRESSION_SYSTEM_TAXID: 562                                         

>  <KEYWDS>  (1) 
    ANTIBIOTIC RESISTANCE, BETA-LACTAMASE, CARBAPENEMASE, DORUPENEM       
   2 COMPLEX, HYDROLASE-ANTIBIOTIC COMPLEX                                

>  <EXPDTA>  (1) 
    X-RAY DIFFRACTION                                                     

>  <AUTHOR>  (1) 
    C.A.SMITH,S.B.VAKULENKO                                               

>  <REVDAT>  (1) 
   2   09-OCT-19 6P9C    1       JRNL                                     
   1   07-AUG-19 6P9C    0                                                

>  <JRNL>  (1) 
      AUTH   C.A.SMITH,N.K.STEWART,M.TOTH,S.B.VAKULENKO                   
      TITL   STRUCTURAL INSIGHTS INTO THE MECHANISM OF CARBAPENEMASE      
      TITL 2 ACTIVITY OF THE OXA-48 BETA-LACTAMASE.                       
      REF    ANTIMICROB.AGENTS CHEMOTHER.  V.  63       2019              
      REFN                   ESSN 1098-6596                               
      PMID   31358584                                                     
      DOI    10.1128/AAC.01202-19                                         

>  <REMARK>  (1) 
   2                                                                      
   2 RESOLUTION.    1.90 ANGSTROMS.                                       
   3                                                                      
   3 REFINEMENT.                                                          
   3   PROGRAM     : PHENIX 1.15.2_3472                                   
   3   AUTHORS     : PAUL ADAMS,PAVEL AFONINE,VINCENT CHEN,IAN            
   3               : DAVIS,KRESHNA GOPAL,RALF GROSSE-KUNSTLEVE,           
   3               : LI-WEI HUNG,ROBERT IMMORMINO,TOM IOERGER,            
   3               : AIRLIE MCCOY,ERIK MCKEE,NIGEL MORIARTY,              
   3               : REETAL PAI,RANDY READ,JANE RICHARDSON,               
   3               : DAVID RICHARDSON,TOD ROMO,JIM SACCHETTINI,           
   3               : NICHOLAS SAUTER,JACOB SMITH,LAURENT                  
   3               : STORONI,TOM TERWILLIGER,PETER ZWART                  
   3                                                                      
   3    REFINEMENT TARGET : NULL                                          
   3                                                                      
   3  DATA USED IN REFINEMENT.                                            
   3   RESOLUTION RANGE HIGH (ANGSTROMS) : 1.90                           
   3   RESOLUTION RANGE LOW  (ANGSTROMS) : 36.51                          
   3   MIN(FOBS/SIGMA_FOBS)              : 1.350                          
   3   COMPLETENESS FOR RANGE        (%) : 98.1                           
   3   NUMBER OF REFLECTIONS             : 44388                          
   3                                                                      
   3  FIT TO DATA USED IN REFINEMENT.                                     
   3   R VALUE     (WORKING + TEST SET) : 0.197                           
   3   R VALUE            (WORKING SET) : 0.194                           
   3   FREE R VALUE                     : 0.241                           
   3   FREE R VALUE TEST SET SIZE   (%) : 5.080                           
   3   FREE R VALUE TEST SET COUNT      : 2254                            
   3                                                                      
   3  FIT TO DATA USED IN REFINEMENT (IN BINS).                           
   3   BIN  RESOLUTION RANGE  COMPL.    NWORK NFREE   RWORK  RFREE        
   3     1 36.5183 -  4.7843    0.99     2819   168  0.1779 0.2036        
   3     2  4.7843 -  3.7988    0.98     2710   136  0.1551 0.1907        
   3     3  3.7988 -  3.3189    1.00     2690   163  0.1888 0.2425        
   3     4  3.3189 -  3.0156    0.97     2635   128  0.2049 0.2502        
   3     5  3.0156 -  2.7996    0.99     2675   150  0.2104 0.2644        
   3     6  2.7996 -  2.6346    1.00     2673   119  0.2056 0.2512        
   3     7  2.6346 -  2.5027    0.99     2650   147  0.2016 0.2741        
   3     8  2.5027 -  2.3937    0.97     2578   135  0.2032 0.2403        
   3     9  2.3937 -  2.3016    0.99     2629   157  0.2029 0.2638        
   3    10  2.3016 -  2.2222    0.98     2589   152  0.2281 0.2954        
   3    11  2.2222 -  2.1527    0.99     2635   132  0.2060 0.2705        
   3    12  2.1527 -  2.0912    1.00     2675   124  0.2018 0.2702        
   3    13  2.0912 -  2.0361    0.96     2512   153  0.2051 0.3043        
   3    14  2.0361 -  1.9865    0.97     2585   133  0.2087 0.2526        
   3    15  1.9865 -  1.9413    0.98     2614   129  0.2448 0.2608        
   3    16  1.9413 -  1.9000    0.94     2465   128  0.3250 0.3940        
   3                                                                      
   3  BULK SOLVENT MODELLING.                                             
   3   METHOD USED        : NULL                                          
   3   SOLVENT RADIUS     : 1.11                                          
   3   SHRINKAGE RADIUS   : 0.90                                          
   3   K_SOL              : NULL                                          
   3   B_SOL              : NULL                                          
   3                                                                      
   3  ERROR ESTIMATES.                                                    
   3   COORDINATE ERROR (MAXIMUM-LIKELIHOOD BASED)     : 0.270            
   3   PHASE ERROR (DEGREES, MAXIMUM-LIKELIHOOD BASED) : 26.590           
   3                                                                      
   3  B VALUES.                                                           
   3   FROM WILSON PLOT           (A**2) : NULL                           
   3   MEAN B VALUE      (OVERALL, A**2) : 31.45                          
   3   OVERALL ANISOTROPIC B VALUE.                                       
   3    B11 (A**2) : NULL                                                 
   3    B22 (A**2) : NULL                                                 
   3    B33 (A**2) : NULL                                                 
   3    B12 (A**2) : NULL                                                 
   3    B13 (A**2) : NULL                                                 
   3    B23 (A**2) : NULL                                                 
   3                                                                      
   3  TWINNING INFORMATION.                                               
   3   FRACTION: NULL                                                     
   3   OPERATOR: NULL                                                     
   3                                                                      
   3  DEVIATIONS FROM IDEAL VALUES.                                       
   3                 RMSD          COUNT                                  
   3   BOND      :   NULL           NULL                                  
   3   ANGLE     :   NULL           NULL                                  
   3   CHIRALITY :   NULL           NULL                                  
   3   PLANARITY :   NULL           NULL                                  
   3   DIHEDRAL  :   NULL           NULL                                  
   3                                                                      
   3  TLS DETAILS                                                         
   3   NUMBER OF TLS GROUPS  : NULL                                       
   3                                                                      
   3  NCS DETAILS                                                         
   3   NUMBER OF NCS GROUPS : NULL                                        
   3                                                                      
   3  OTHER REFINEMENT REMARKS: NULL                                      
   4                                                                      
   4 6P9C COMPLIES WITH FORMAT V. 3.30, 13-JUL-11                         
 100                                                                      
 100 THIS ENTRY HAS BEEN PROCESSED BY RCSB ON 12-JUN-19.                  
 100 THE DEPOSITION ID IS D_1000242163.                                   
 200                                                                      
 200 EXPERIMENTAL DETAILS                                                 
 200  EXPERIMENT TYPE                : X-RAY DIFFRACTION                  
 200  DATE OF DATA COLLECTION        : 17-FEB-19                          
 200  TEMPERATURE           (KELVIN) : 100                                
 200  PH                             : NULL                               
 200  NUMBER OF CRYSTALS USED        : 1                                  
 200                                                                      
 200  SYNCHROTRON              (Y/N) : Y                                  
 200  RADIATION SOURCE               : SSRL                               
 200  BEAMLINE                       : BL12-2                             
 200  X-RAY GENERATOR MODEL          : NULL                               
 200  MONOCHROMATIC OR LAUE    (M/L) : M                                  
 200  WAVELENGTH OR RANGE        (A) : 0.9795                             
 200  MONOCHROMATOR                  : NULL                               
 200  OPTICS                         : NULL                               
 200                                                                      
 200  DETECTOR TYPE                  : PIXEL                              
 200  DETECTOR MANUFACTURER          : DECTRIS PILATUS 6M                 
 200  INTENSITY-INTEGRATION SOFTWARE : XDS                                
 200  DATA SCALING SOFTWARE          : AIMLESS                            
 200                                                                      
 200  NUMBER OF UNIQUE REFLECTIONS   : 44627                              
 200  RESOLUTION RANGE HIGH      (A) : 1.900                              
 200  RESOLUTION RANGE LOW       (A) : 38.400                             
 200  REJECTION CRITERIA  (SIGMA(I)) : NULL                               
 200                                                                      
 200 OVERALL.                                                             
 200  COMPLETENESS FOR RANGE     (%) : 98.7                               
 200  DATA REDUNDANCY                : 7.400                              
 200  R MERGE                    (I) : NULL                               
 200  R SYM                      (I) : NULL                               
 200  <I/SIGMA(I)> FOR THE DATA SET  : 10.4000                            
 200                                                                      
 200 IN THE HIGHEST RESOLUTION SHELL.                                     
 200  HIGHEST RESOLUTION SHELL, RANGE HIGH (A) : 1.90                     
 200  HIGHEST RESOLUTION SHELL, RANGE LOW  (A) : 1.94                     
 200  COMPLETENESS FOR SHELL     (%) : NULL                               
 200  DATA REDUNDANCY IN SHELL       : NULL                               
 200  R MERGE FOR SHELL          (I) : NULL                               
 200  R SYM FOR SHELL            (I) : NULL                               
 200  <I/SIGMA(I)> FOR SHELL         : 2.400                              
 200                                                                      
 200 DIFFRACTION PROTOCOL: SINGLE WAVELENGTH                              
 200 METHOD USED TO DETERMINE THE STRUCTURE: MOLECULAR REPLACEMENT        
 200 SOFTWARE USED: MOLREP                                                
 200 STARTING MODEL: NULL                                                 
 200                                                                      
 200 REMARK: NULL                                                         
 280                                                                      
 280 CRYSTAL                                                              
 280 SOLVENT CONTENT, VS   (%): 51.04                                     
 280 MATTHEWS COEFFICIENT, VM (ANGSTROMS**3/DA): 2.51                     
 280                                                                      
 280 CRYSTALLIZATION CONDITIONS: 5 MM CA2+, 5 MM CO2+, 5 MM CD2+, 20%     
 280  PEG 3350, VAPOR DIFFUSION, SITTING DROP, TEMPERATURE 293K           
 290                                                                      
 290 CRYSTALLOGRAPHIC SYMMETRY                                            
 290 SYMMETRY OPERATORS FOR SPACE GROUP: P 21 21 21                       
 290                                                                      
 290      SYMOP   SYMMETRY                                                
 290     NNNMMM   OPERATOR                                                
 290       1555   X,Y,Z                                                   
 290       2555   -X+1/2,-Y,Z+1/2                                         
 290       3555   -X,Y+1/2,-Z+1/2                                         
 290       4555   X+1/2,-Y+1/2,-Z                                         
 290                                                                      
 290     WHERE NNN -> OPERATOR NUMBER                                     
 290           MMM -> TRANSLATION VECTOR                                  
 290                                                                      
 290 CRYSTALLOGRAPHIC SYMMETRY TRANSFORMATIONS                            
 290 THE FOLLOWING TRANSFORMATIONS OPERATE ON THE ATOM/HETATM             
 290 RECORDS IN THIS ENTRY TO PRODUCE CRYSTALLOGRAPHICALLY                
 290 RELATED MOLECULES.                                                   
 290   SMTRY1   1  1.000000  0.000000  0.000000        0.00000            
 290   SMTRY2   1  0.000000  1.000000  0.000000        0.00000            
 290   SMTRY3   1  0.000000  0.000000  1.000000        0.00000            
 290   SMTRY1   2 -1.000000  0.000000  0.000000       36.30200            
 290   SMTRY2   2  0.000000 -1.000000  0.000000        0.00000            
 290   SMTRY3   2  0.000000  0.000000  1.000000       50.59400            
 290   SMTRY1   3 -1.000000  0.000000  0.000000        0.00000            
 290   SMTRY2   3  0.000000  1.000000  0.000000       38.37450            
 290   SMTRY3   3  0.000000  0.000000 -1.000000       50.59400            
 290   SMTRY1   4  1.000000  0.000000  0.000000       36.30200            
 290   SMTRY2   4  0.000000 -1.000000  0.000000       38.37450            
 290   SMTRY3   4  0.000000  0.000000 -1.000000        0.00000            
 290                                                                      
 290 REMARK: NULL                                                         
 300                                                                      
 300 BIOMOLECULE: 1                                                       
 300 SEE REMARK 350 FOR THE AUTHOR PROVIDED AND/OR PROGRAM                
 300 GENERATED ASSEMBLY INFORMATION FOR THE STRUCTURE IN                  
 300 THIS ENTRY. THE REMARK MAY ALSO PROVIDE INFORMATION ON               
 300 BURIED SURFACE AREA.                                                 
 350                                                                      
 350 COORDINATES FOR A COMPLETE MULTIMER REPRESENTING THE KNOWN           
 350 BIOLOGICALLY SIGNIFICANT OLIGOMERIZATION STATE OF THE                
 350 MOLECULE CAN BE GENERATED BY APPLYING BIOMT TRANSFORMATIONS          
 350 GIVEN BELOW.  BOTH NON-CRYSTALLOGRAPHIC AND                          
 350 CRYSTALLOGRAPHIC OPERATIONS ARE GIVEN.                               
 350                                                                      
 350 BIOMOLECULE: 1                                                       
 350 AUTHOR DETERMINED BIOLOGICAL UNIT: DIMERIC                           
 350 SOFTWARE DETERMINED QUATERNARY STRUCTURE: DIMERIC                    
 350 SOFTWARE USED: PISA                                                  
 350 TOTAL BURIED SURFACE AREA: 2740 ANGSTROM**2                          
 350 SURFACE AREA OF THE COMPLEX: 20000 ANGSTROM**2                       
 350 CHANGE IN SOLVENT FREE ENERGY: -64.0 KCAL/MOL                        
 350 APPLY THE FOLLOWING TO CHAINS: A, B                                  
 350   BIOMT1   1  1.000000  0.000000  0.000000        0.00000            
 350   BIOMT2   1  0.000000  1.000000  0.000000        0.00000            
 350   BIOMT3   1  0.000000  0.000000  1.000000        0.00000            
 465                                                                      
 465 MISSING RESIDUES                                                     
 465 THE FOLLOWING RESIDUES WERE NOT LOCATED IN THE                       
 465 EXPERIMENT. (M=MODEL NUMBER; RES=RESIDUE NAME; C=CHAIN               
 465 IDENTIFIER; SSSEQ=SEQUENCE NUMBER; I=INSERTION CODE.)                
 465                                                                      
 465   M RES C SSSEQI                                                     
 465     MET A     1                                                      
 465     ARG A     2                                                      
 465     VAL A     3                                                      
 465     LEU A     4                                                      
 465     ALA A     5                                                      
 465     LEU A     6                                                      
 465     SER A     7                                                      
 465     ALA A     8                                                      
 465     VAL A     9                                                      
 465     PHE A    10                                                      
 465     LEU A    11                                                      
 465     VAL A    12                                                      
 465     ALA A    13                                                      
 465     SER A    14                                                      
 465     ILE A    15                                                      
 465     ILE A    16                                                      
 465     GLY A    17                                                      
 465     MET A    18                                                      
 465     PRO A    19                                                      
 465     ALA A    20                                                      
 465     VAL A    21                                                      
 465     ALA A    22                                                      
 465     LYS A    23                                                      
 465     MET B     1                                                      
 465     ARG B     2                                                      
 465     VAL B     3                                                      
 465     LEU B     4                                                      
 465     ALA B     5                                                      
 465     LEU B     6                                                      
 465     SER B     7                                                      
 465     ALA B     8                                                      
 465     VAL B     9                                                      
 465     PHE B    10                                                      
 465     LEU B    11                                                      
 465     VAL B    12                                                      
 465     ALA B    13                                                      
 465     SER B    14                                                      
 465     ILE B    15                                                      
 465     ILE B    16                                                      
 465     GLY B    17                                                      
 465     MET B    18                                                      
 465     PRO B    19                                                      
 465     ALA B    20                                                      
 465     VAL B    21                                                      
 465     ALA B    22                                                      
 465     LYS B    23                                                      
 470                                                                      
 470 MISSING ATOM                                                         
 470 THE FOLLOWING RESIDUES HAVE MISSING ATOMS (M=MODEL NUMBER;           
 470 RES=RESIDUE NAME; C=CHAIN IDENTIFIER; SSEQ=SEQUENCE NUMBER;          
 470 I=INSERTION CODE):                                                   
 470   M RES CSSEQI  ATOMS                                                
 470     GLU A  24    CG   CD   OE1  OE2                                  
 470     GLU B  24    CG   CD   OE1  OE2                                  
 500                                                                      
 500 GEOMETRY AND STEREOCHEMISTRY                                         
 500 SUBTOPIC: TORSION ANGLES                                             
 500                                                                      
 500 TORSION ANGLES OUTSIDE THE EXPECTED RAMACHANDRAN REGIONS:            
 500 (M=MODEL NUMBER; RES=RESIDUE NAME; C=CHAIN IDENTIFIER;               
 500 SSEQ=SEQUENCE NUMBER; I=INSERTION CODE).                             
 500                                                                      
 500 STANDARD TABLE:                                                      
 500 FORMAT:(10X,I3,1X,A3,1X,A1,I4,A1,4X,F7.2,3X,F7.2)                    
 500                                                                      
 500 EXPECTED VALUES: GJ KLEYWEGT AND TA JONES (1996). PHI/PSI-           
 500 CHOLOGY: RAMACHANDRAN REVISITED. STRUCTURE 4, 1395 - 1400            
 500                                                                      
 500  M RES CSSEQI        PSI       PHI                                   
 500    ALA A  69     -133.70     50.73                                   
 500    TRP A  95       -9.81    -51.79                                   
 500    ASP A  96       46.27     37.78                                   
 500    GLN A  98      117.56    -33.12                                   
 500    ARG A 100       73.36    -29.35                                   
 500    ASP A 101      -65.17     49.53                                   
 500    ASN A 106       40.59   -109.65                                   
 500    SER A 118      -77.50     73.26                                   
 500    VAL A 119      102.90     56.09                                   
 500    SER A 155       11.63   -156.24                                   
 500    ASP A 159       16.46   -144.54                                   
 500    ALA B  69     -134.27     49.93                                   
 500    ASN B 106       53.27    -91.83                                   
 500                                                                      
 500 REMARK: NULL                                                         
 620                                                                      
 620 METAL COORDINATION                                                   
 620 (M=MODEL NUMBER; RES=RESIDUE NAME; C=CHAIN IDENTIFIER;               
 620 SSEQ=SEQUENCE NUMBER; I=INSERTION CODE):                             
 620                                                                      
 620 COORDINATION ANGLES FOR:  M RES CSSEQI METAL                         
 620                              CA A 305  CA                            
 620 N RES CSSEQI ATOM                                                    
 620 1 GLU A  37   OE2                                                    
 620 2 GLU A 256   OE1  72.5                                              
 620 N                    1                                               
 620                                                                      
 620 COORDINATION ANGLES FOR:  M RES CSSEQI METAL                         
 620                              CD A 307  CD                            
 620 N RES CSSEQI ATOM                                                    
 620 1 GLU A  37   OE2                                                    
 620 2 HIS A  38   NE2  98.5                                              
 620 3 GLU A 256   OE1  77.7 102.9                                        
 620 4 GLU A 256   OE2 113.6 128.1  50.8                                  
 620 5 GLU A 125   OE1 120.6  47.9  68.6  80.3                            
 620 6 GLU A 125   OE2 117.6  46.6  67.6  81.9   3.0                      
 620 N                    1     2     3     4     5                       
 620                                                                      
 620 COORDINATION ANGLES FOR:  M RES CSSEQI METAL                         
 620                              CA A 306  CA                            
 620 N RES CSSEQI ATOM                                                    
 620 1 ASP A 154   OD1                                                    
 620 2 ASP A 154   OD2  42.3                                              
 620 N                    1                                               
 620                                                                      
 620 COORDINATION ANGLES FOR:  M RES CSSEQI METAL                         
 620                              CA B 305  CA                            
 620 N RES CSSEQI ATOM                                                    
 620 1 ASP B 143   OD1                                                    
 620 2 GLU B 147   OE1  61.9                                              
 620 3 GLU B 147   OE2  99.4  48.3                                        
 620 4 HOH B 446   O    92.0 108.1  77.9                                  
 620 5 HOH B 452   O   161.5  99.9  67.4  97.5                            
 620 6 ASP A 143   OD1  60.6  83.1  75.0  33.2 123.9                      
 620 7 GLU A 147   OE1  61.5  85.7  77.1  31.5 124.0   2.6                
 620 8 HOH A 413   O   123.9 172.2 123.9  67.7  74.6  95.3  92.8          
 620 N                    1     2     3     4     5     6     7           
 620                                                                      
 620 COORDINATION ANGLES FOR:  M RES CSSEQI METAL                         
 620                              CD B 306  CD                            
 620 N RES CSSEQI ATOM                                                    
 620 1 ASP B 143   OD1                                                    
 620 2 HOH B 401   O    85.8                                              
 620 3 HOH B 404   O    87.0 165.1                                        
 620 4 GLU A 147   OE1  32.0  94.4  72.8                                  
 620 5 GLU A 147   OE2  30.7  95.6  71.9   2.0                            
 620 6 HOH A 486   O   159.2  90.5  91.6 128.5 130.0                      
 620 N                    1     2     3     4     5                       
 800                                                                      
 800 SITE                                                                 
 800 SITE_IDENTIFIER: AC1                                                 
 800 EVIDENCE_CODE: SOFTWARE                                              
 800 SITE_DESCRIPTION: binding site for residue 4J6 A 301                 
 800                                                                      
 800 SITE_IDENTIFIER: AC2                                                 
 800 EVIDENCE_CODE: SOFTWARE                                              
 800 SITE_DESCRIPTION: binding site for residue O6P A 302                 
 800                                                                      
 800 SITE_IDENTIFIER: AC3                                                 
 800 EVIDENCE_CODE: SOFTWARE                                              
 800 SITE_DESCRIPTION: binding site for residue CL A 303                  
 800                                                                      
 800 SITE_IDENTIFIER: AC4                                                 
 800 EVIDENCE_CODE: SOFTWARE                                              
 800 SITE_DESCRIPTION: binding site for residue CL A 304                  
 800                                                                      
 800 SITE_IDENTIFIER: AC5                                                 
 800 EVIDENCE_CODE: SOFTWARE                                              
 800 SITE_DESCRIPTION: binding site for residue CA A 305                  
 800                                                                      
 800 SITE_IDENTIFIER: AC6                                                 
 800 EVIDENCE_CODE: SOFTWARE                                              
 800 SITE_DESCRIPTION: binding site for residue CA A 306                  
 800                                                                      
 800 SITE_IDENTIFIER: AC7                                                 
 800 EVIDENCE_CODE: SOFTWARE                                              
 800 SITE_DESCRIPTION: binding site for residue CD A 307                  
 800                                                                      
 800 SITE_IDENTIFIER: AC8                                                 
 800 EVIDENCE_CODE: SOFTWARE                                              
 800 SITE_DESCRIPTION: binding site for residue 4J6 B 301                 
 800                                                                      
 800 SITE_IDENTIFIER: AC9                                                 
 800 EVIDENCE_CODE: SOFTWARE                                              
 800 SITE_DESCRIPTION: binding site for residue O6P B 302                 
 800                                                                      
 800 SITE_IDENTIFIER: AD1                                                 
 800 EVIDENCE_CODE: SOFTWARE                                              
 800 SITE_DESCRIPTION: binding site for residue CL B 303                  
 800                                                                      
 800 SITE_IDENTIFIER: AD2                                                 
 800 EVIDENCE_CODE: SOFTWARE                                              
 800 SITE_DESCRIPTION: binding site for residue CA B 305                  
 800                                                                      
 800 SITE_IDENTIFIER: AD3                                                 
 800 EVIDENCE_CODE: SOFTWARE                                              
 800 SITE_DESCRIPTION: binding site for residue CD B 306                  

>  <DBREF>  (1) 
 6P9C A    1   265  UNP    Q6XEC0   Q6XEC0_KLEPN     1    265             
 6P9C B    1   265  UNP    Q6XEC0   Q6XEC0_KLEPN     1    265             

>  <SEQRES>  (1) 
   1 A  265  MET ARG VAL LEU ALA LEU SER ALA VAL PHE LEU VAL ALA          
   2 A  265  SER ILE ILE GLY MET PRO ALA VAL ALA LYS GLU TRP GLN          
   3 A  265  GLU ASN LYS SER TRP ASN ALA HIS PHE THR GLU HIS LYS          
   4 A  265  SER GLN GLY VAL VAL VAL LEU TRP ASN GLU ASN LYS GLN          
   5 A  265  GLN GLY PHE THR ASN ASN LEU LYS ARG ALA ASN GLN ALA          
   6 A  265  PHE LEU PRO ALA SER THR PHE LYS ILE PRO ASN SER LEU          
   7 A  265  ILE ALA LEU ASP LEU GLY VAL VAL LYS ASP GLU HIS GLN          
   8 A  265  VAL PHE LYS TRP ASP GLY GLN THR ARG ASP ILE ALA THR          
   9 A  265  TRP ASN ARG ASP HIS ASN LEU ILE THR ALA MET LYS TYR          
  10 A  265  SER VAL VAL PRO VAL TYR GLN GLU PHE ALA ARG GLN ILE          
  11 A  265  GLY GLU ALA ARG MET SER LYS MET LEU HIS ALA PHE ASP          
  12 A  265  TYR GLY ASN GLU ASP ILE SER GLY ASN VAL ASP SER PHE          
  13 A  265  TRP LEU ASP GLY GLY ILE ARG ILE SER ALA THR GLU GLN          
  14 A  265  ILE SER PHE LEU ARG LYS LEU TYR HIS ASN LYS LEU HIS          
  15 A  265  VAL SER GLU ARG SER GLN ARG ILE VAL LYS GLN ALA MET          
  16 A  265  LEU THR GLU ALA ASN GLY ASP TYR ILE ILE ARG ALA LYS          
  17 A  265  THR GLY TYR SER THR ARG ILE GLU PRO LYS ILE GLY TRP          
  18 A  265  TRP VAL GLY TRP VAL GLU LEU ASP ASP ASN VAL TRP PHE          
  19 A  265  PHE ALA MET ASN MET ASP MET PRO THR SER ASP GLY LEU          
  20 A  265  GLY LEU ARG GLN ALA ILE THR LYS GLU VAL LEU LYS GLN          
  21 A  265  GLU LYS ILE ILE PRO                                          
   1 B  265  MET ARG VAL LEU ALA LEU SER ALA VAL PHE LEU VAL ALA          
   2 B  265  SER ILE ILE GLY MET PRO ALA VAL ALA LYS GLU TRP GLN          
   3 B  265  GLU ASN LYS SER TRP ASN ALA HIS PHE THR GLU HIS LYS          
   4 B  265  SER GLN GLY VAL VAL VAL LEU TRP ASN GLU ASN LYS GLN          
   5 B  265  GLN GLY PHE THR ASN ASN LEU LYS ARG ALA ASN GLN ALA          
   6 B  265  PHE LEU PRO ALA SER THR PHE LYS ILE PRO ASN SER LEU          
   7 B  265  ILE ALA LEU ASP LEU GLY VAL VAL LYS ASP GLU HIS GLN          
   8 B  265  VAL PHE LYS TRP ASP GLY GLN THR ARG ASP ILE ALA THR          
   9 B  265  TRP ASN ARG ASP HIS ASN LEU ILE THR ALA MET LYS TYR          
  10 B  265  SER VAL VAL PRO VAL TYR GLN GLU PHE ALA ARG GLN ILE          
  11 B  265  GLY GLU ALA ARG MET SER LYS MET LEU HIS ALA PHE ASP          
  12 B  265  TYR GLY ASN GLU ASP ILE SER GLY ASN VAL ASP SER PHE          
  13 B  265  TRP LEU ASP GLY GLY ILE ARG ILE SER ALA THR GLU GLN          
  14 B  265  ILE SER PHE LEU ARG LYS LEU TYR HIS ASN LYS LEU HIS          
  15 B  265  VAL SER GLU ARG SER GLN ARG ILE VAL LYS GLN ALA MET          
  16 B  265  LEU THR GLU ALA ASN GLY ASP TYR ILE ILE ARG ALA LYS          
  17 B  265  THR GLY TYR SER THR ARG ILE GLU PRO LYS ILE GLY TRP          
  18 B  265  TRP VAL GLY TRP VAL GLU LEU ASP ASP ASN VAL TRP PHE          
  19 B  265  PHE ALA MET ASN MET ASP MET PRO THR SER ASP GLY LEU          
  20 B  265  GLY LEU ARG GLN ALA ILE THR LYS GLU VAL LEU LYS GLN          
  21 B  265  GLU LYS ILE ILE PRO                                          

>  <HET>  (1) 
 4J6  A 301      27                                                       
 O6P  A 302      27                                                       
  CL  A 303       1                                                       
  CL  A 304       1                                                       
  CA  A 305       1                                                       
  CA  A 306       1                                                       
  CD  A 307       1                                                       
 4J6  B 301      27                                                       
 O6P  B 302      27                                                       
  CL  B 303       1                                                       
  CL  B 304       1                                                       
  CA  B 305       1                                                       
  CD  B 306       1                                                       

>  <HETNAM>  (1) 
     4J6 (4R,5S)-5-[(2S,3R)-3-HYDROXY-1-OXOBUTAN-2-YL]-4-METHYL-          
   2 4J6  3-({(3S,5S)-5-[(SULFAMOYLAMINO)METHYL]PYRROLIDIN-3-             
   3 4J6  YL}SULFANYL)-4,5-DIHYDRO-1H-PYRROLE-2-CARBOXYLIC ACID           
     O6P DORIPENEM                                                        
      CL CHLORIDE ION                                                     
      CA CALCIUM ION                                                      
      CD CADMIUM ION                                                      

>  <HETSYN>  (1) 
     4J6 DORIPENEM(OPEN FORM, PYRROLINE TAUTOMER FORM 1, SP2              
   2 4J6  CONNECTION TO THIO)                                             
     O6P (4R,5S,6S)-6-[(1R)-1-HYDROXYETHYL]-4-METHYL-7-OXO-3-             
   2 O6P  ({(3S,5S)-5-[(SULFAMOYLAMINO)METHYL]PYRROLIDIN-3-               
   3 O6P  YL}SULFANYL)-1-AZABICYCLO[3.2.0]HEPT-2-ENE-2-                   
   4 O6P  CARBOXYLIC ACID                                                 

>  <FORMUL>  (1) 
   3  4J6    2(C15 H26 N4 O6 S2)                                          
   4  O6P    2(C15 H24 N4 O6 S2)                                          
   5   CL    4(CL 1-)                                                     
   7   CA    3(CA 2+)                                                     
   9   CD    2(CD 2+)                                                     
  16  HOH   *181(H2 O)                                                    

>  <HELIX>  (1) 
   1 AA1 TRP A   31  GLU A   37  1                                   7    
   2 AA2 ASN A   58  ASN A   63  1                                   6    
   3 AA3 PRO A   68  THR A   71  5                                   4    
   4 AA4 PHE A   72  LEU A   83  1                                  12    
   5 AA5 ILE A  102  ASN A  106  5                                   5    
   6 AA6 ASN A  110  SER A  118  1                                   9    
   7 AA7 VAL A  119  ASP A  143  1                                  25    
   8 AA8 SER A  155  GLY A  160  1                                   6    
   9 AA9 ALA A  166  HIS A  178  1                                  13    
  10 AB1 SER A  184  MET A  195  1                                  12    
  11 AB2 THR A  243  LEU A  247  5                                   5    
  12 AB3 GLY A  248  GLU A  261  1                                  14    
  13 AB4 TRP B   31  HIS B   38  1                                   8    
  14 AB5 ASN B   58  ASN B   63  1                                   6    
  15 AB6 PRO B   68  THR B   71  5                                   4    
  16 AB7 PHE B   72  LEU B   83  1                                  12    
  17 AB8 ILE B  102  ASN B  106  5                                   5    
  18 AB9 ASN B  110  TYR B  117  1                                   8    
  19 AC1 VAL B  119  GLY B  131  1                                  13    
  20 AC2 GLY B  131  ASP B  143  1                                  13    
  21 AC3 SER B  155  GLY B  160  1                                   6    
  22 AC4 ALA B  166  HIS B  178  1                                  13    
  23 AC5 SER B  184  MET B  195  1                                  12    
  24 AC6 THR B  243  LEU B  247  5                                   5    
  25 AC7 GLY B  248  GLU B  261  1                                  14    

>  <SHEET>  (1) 
   1 AA1 7 TRP A  25  GLU A  27  0                                        
   2 AA1 7 GLN A  53  THR A  56  1  O  GLY A  54   N  GLN A  26           
   3 AA1 7 GLY A  42  ASN A  48 -1  N  LEU A  46   O  PHE A  55           
   4 AA1 7 VAL A 232  ASP A 240 -1  O  ASN A 238   N  VAL A  43           
   5 AA1 7 ILE A 219  GLU A 227 -1  N  GLY A 224   O  PHE A 235           
   6 AA1 7 ILE A 204  SER A 212 -1  N  ILE A 204   O  GLU A 227           
   7 AA1 7 LEU A 196  ALA A 199 -1  N  GLU A 198   O  ILE A 205           
   1 AA2 2 ALA A  65  PHE A  66  0                                        
   2 AA2 2 ILE A 164  SER A 165 -1  O  ILE A 164   N  PHE A  66           
   1 AA3 7 TRP B  25  GLU B  27  0                                        
   2 AA3 7 GLN B  53  THR B  56  1  O  GLY B  54   N  GLN B  26           
   3 AA3 7 GLY B  42  ASN B  48 -1  N  ASN B  48   O  GLN B  53           
   4 AA3 7 VAL B 232  ASP B 240 -1  O  ASN B 238   N  VAL B  43           
   5 AA3 7 ILE B 219  GLU B 227 -1  N  VAL B 226   O  TRP B 233           
   6 AA3 7 ILE B 204  SER B 212 -1  N  ILE B 204   O  GLU B 227           
   7 AA3 7 LEU B 196  ALA B 199 -1  N  GLU B 198   O  ILE B 205           
   1 AA4 2 ALA B  65  PHE B  66  0                                        
   2 AA4 2 ILE B 164  SER B 165 -1  O  ILE B 164   N  PHE B  66           

>  <LINK>  (1) 
       OE2 GLU A  37                CA    CA A 305     1555   1555  2.31  
       OE2 GLU A  37                CD    CD A 307     1555   1555  2.52  
       NE2 HIS A  38                CD    CD A 307     1555   1555  2.39  
       OG  SER A  70                 CAJ 4J6 A 301     1555   1555  1.38  
       OD1 ASP A 154                CA    CA A 306     1555   1555  3.15  
       OD2 ASP A 154                CA    CA A 306     1555   1555  2.83  
       OE1 GLU A 256                CA    CA A 305     1555   1555  3.01  
       OE1 GLU A 256                CD    CD A 307     1555   1555  2.58  
       OE2 GLU A 256                CD    CD A 307     1555   1555  2.59  
       OD1 ASP B 143                CA    CA B 305     1555   1555  2.87  
       OD1 ASP B 143                CD    CD B 306     1555   1555  2.51  
       OE1 GLU B 147                CA    CA B 305     1555   1555  2.29  
       OE2 GLU B 147                CA    CA B 305     1555   1555  2.86  
      CA    CA B 305                 O   HOH B 446     1555   1555  2.27  
      CA    CA B 305                 O   HOH B 452     1555   1555  2.14  
      CD    CD B 306                 O   HOH B 401     1555   1555  2.64  
      CD    CD B 306                 O   HOH B 404     1555   1555  2.46  
       OE1 GLU A 125                CD    CD A 307     1555   4445  2.60  
       OE2 GLU A 125                CD    CD A 307     1555   4445  2.55  
       OD1 ASP A 143                CA    CA B 305     1555   3544  2.31  
       OE1 GLU A 147                CD    CD B 306     1555   3544  2.42  
       OE1 GLU A 147                CA    CA B 305     1555   3544  2.35  
       OE2 GLU A 147                CD    CD B 306     1555   3544  2.53  
      CA    CA B 305                 O   HOH A 413     1555   3554  2.85  
      CD    CD B 306                 O   HOH A 486     1555   3554  2.64  

>  <CISPEP>  (1) 
   1 GLU A  216    PRO A  217          0         1.11                     
   2 GLU B  216    PRO B  217          0        -1.12                     

>  <SITE>  (1) 
   1 AC1 11 ALA A  69  SER A  70  SER A 118  GLU A 132                    
   2 AC1 11 LEU A 158  THR A 209  GLY A 210  TYR A 211                    
   3 AC1 11 LEU A 247  ARG A 250  HOH A 419                               
   1 AC2  9 ASN A  48  LYS A  51  LEU A 228  ASP A 230                    
   2 AC2  9 ASN A 231  TRP A 233  GLU A 261  LYS A 262                    
   3 AC2  9 ILE A 263                                                     
   1 AC3  2 LYS A  73  TRP A 157                                          
   1 AC4  2 ARG A 206  ARG B 206                                          
   1 AC5  4 HIS A  34  GLU A  37  GLU A 256   CD A 307                    
   1 AC6  1 ASP A 154                                                     
   1 AC7  5 GLU A  37  HIS A  38  GLU A 125  GLU A 256                    
   2 AC7  5  CA A 305                                                     
   1 AC8 12 ALA B  69  SER B  70  SER B 118  LEU B 158                    
   2 AC8 12 LYS B 208  THR B 209  GLY B 210  TYR B 211                    
   3 AC8 12 SER B 244  LEU B 247  ARG B 250  HOH B 464                    
   1 AC9  9 ASN B  48  LYS B  51  LEU B 228  ASP B 230                    
   2 AC9  9 ASN B 231  TRP B 233  GLU B 261  LYS B 262                    
   3 AC9  9 ILE B 263                                                     
   1 AD1  2 LYS B  73  TRP B 157                                          
   1 AD2  7 ASP A 143  GLU A 147  HOH A 413  ASP B 143                    
   2 AD2  7 GLU B 147  HOH B 446  HOH B 452                               
   1 AD3  7 GLU A 147  HOH A 486  ASP B 143  GLU B 147                    
   2 AD3  7 HOH B 401  HOH B 404  HOH B 423                               

>  <ORIGX1>  (1) 
      1.000000  0.000000  0.000000        0.00000                         

>  <ORIGX2>  (1) 
      0.000000  1.000000  0.000000        0.00000                         

>  <ORIGX3>  (1) 
      0.000000  0.000000  1.000000        0.00000                         

>  <SCALE1>  (1) 
      0.013773  0.000000  0.000000        0.00000                         

>  <SCALE2>  (1) 
      0.000000  0.013029  0.000000        0.00000                         

>  <SCALE3>  (1) 
      0.000000  0.000000  0.009883        0.00000                         

>  <MASTER>  (1) 
      400    0   13   25   18    0   23    6 4250    2  128   42          

$$$$
