start_structures/Ligand_Substrate/Ligand_Complex_Stripped/3GE_4R3B.pdb
     RDKit          3D

 24 23  0  0  1  0  0  0  0  0999 V2000
   48.7967   51.8774   46.3362 N   0  0  0  0  0  0  0  0  0  0  0  0
   47.4472   51.3814   46.5439 C   0  0  2  0  0  0  0  0  0  0  0  0
   47.4045   49.8863   46.4404 C   0  0  0  0  0  0  0  0  0  0  0  0
   46.4742   49.2679   46.9366 O   0  0  0  0  0  0  0  0  0  0  0  0
   46.5140   52.0024   45.5108 C   0  0  0  0  0  0  0  0  0  0  0  0
   46.1633   53.3346   45.8720 O   0  0  0  0  0  0  0  0  0  0  0  0
   44.6890   52.6837   47.5278 O   0  0  0  0  0  0  0  0  0  0  0  0
   45.2690   53.6171   46.9063 C   0  0  0  0  0  0  0  0  0  0  0  0
   45.0455   55.0439   47.3015 C   0  0  1  0  0  0  0  0  0  0  0  0
   43.5925   55.3969   47.3741 C   0  0  0  0  0  0  0  0  0  0  0  0
   43.1110   56.2191   46.5525 O   0  0  0  0  0  0  0  0  0  0  0  0
   42.7688   54.8214   48.3348 O   0  0  0  0  0  0  0  0  0  0  0  0
   45.7775   55.3876   48.5642 C   0  0  0  0  0  0  0  0  0  0  0  0
   45.5107   54.7920   49.6736 N   0  0  0  0  0  0  0  0  0  0  0  0
   46.2125   55.0846   50.9094 C   0  0  2  0  0  0  0  0  0  0  0  0
   45.9874   56.4999   51.3651 C   0  0  0  0  0  0  0  0  0  0  0  0
   45.3593   56.7151   52.4337 O   0  0  0  0  0  0  0  0  0  0  0  0
   46.4616   57.5720   50.6188 O   0  0  0  0  0  0  0  0  0  0  0  0
   47.6890   54.6189   50.9138 C   0  0  0  0  0  0  0  0  0  0  0  0
   48.5469   55.4491   49.9712 C   0  0  0  0  0  0  0  0  0  0  0  0
   47.7694   53.1639   50.4781 C   0  0  0  0  0  0  0  0  0  0  0  0
   48.3709   54.7572   52.5864 S   0  0  0  0  0  0  0  0  0  0  0  0
   49.9009   54.0169   52.4821 O   0  0  0  0  0  0  0  0  0  0  0  0
   47.4578   53.6496   53.5022 O   0  0  0  0  0  0  0  0  0  0  0  0
  2  3  1  0
  2  1  1  6
  4  3  2  0
  5  2  1  0
  6  8  1  0
  6  5  1  0
  7  8  2  0
  9  8  1  1
  9 10  1  0
  9 13  1  0
 10 11  2  0
 10 12  1  0
 13 14  2  0
 15 14  1  0
 15 16  1  0
 15 19  1  1
 16 17  2  0
 16 18  1  0
 19 20  1  0
 19 21  1  0
 19 22  1  0
 22 23  1  0
 22 24  1  0
M  END
>  <HEADER>  (1) 
    HYDROLASE                               14-AUG-14   4R3B              

>  <TITLE>  (1) 
    CRYSTAL STRUCTURE OF SHV-1 B-LACTAMASE IN COMPLEX WITH 6B-            
   2 (HYDROXYMETHYL)PENICILLANIC ACID SULFONE PSR-283A                    

>  <COMPND>  (1) 
    MOL_ID: 1;                                                            
   2 MOLECULE: BETA-LACTAMASE SHV-1;                                      
   3 CHAIN: A;                                                            
   4 FRAGMENT: SHV-1 BETA-LACTAMASE;                                      
   5 SYNONYM: PIT-2;                                                      
   6 EC: 3.5.2.6;                                                         
   7 ENGINEERED: YES                                                      

>  <SOURCE>  (1) 
    MOL_ID: 1;                                                            
   2 ORGANISM_SCIENTIFIC: KLEBSIELLA PNEUMONIAE;                          
   3 ORGANISM_TAXID: 573;                                                 
   4 GENE: BLA, SHV1;                                                     
   5 EXPRESSION_SYSTEM: ESCHERICHIA COLI;                                 
   6 EXPRESSION_SYSTEM_TAXID: 562                                         

>  <KEYWDS>  (1) 
    CLASS A BETA-LACTAMASE, HYDROLASE, INACTIVATE B-LACTAM ANTIBIOTICS    

>  <EXPDTA>  (1) 
    X-RAY DIFFRACTION                                                     

>  <AUTHOR>  (1) 
    E.A.RODKEY,F.VAN DEN AKKER                                            

>  <REVDAT>  (1) 
   2   11-FEB-15 4R3B    1       JRNL                                     
   1   21-JAN-15 4R3B    0                                                

>  <JRNL>  (1) 
      AUTH   T.CHE,E.A.RODKEY,C.R.BETHEL,S.SHANMUGAM,Z.DING,              
      AUTH 2 M.PUSZTAI-CAREY,M.NOTTINGHAM,W.CHAI,J.D.BUYNAK,R.A.BONOMO,   
      AUTH 3 F.VAN DEN AKKER,P.R.CAREY                                    
      TITL   DETECTING A QUASI-STABLE IMINE SPECIES ON THE REACTION       
      TITL 2 PATHWAY OF SHV-1 BETA-LACTAMASE AND 6                        
      TITL 3 BETA-(HYDROXYMETHYL)PENICILLANIC ACID SULFONE.               
      REF    BIOCHEMISTRY                  V.  54   734 2015              
      REFN                   ISSN 0006-2960                               
      PMID   25536850                                                     
      DOI    10.1021/BI501197T                                            

>  <REMARK>  (1) 
   2                                                                      
   2 RESOLUTION.    1.37 ANGSTROMS.                                       
   3                                                                      
   3 REFINEMENT.                                                          
   3   PROGRAM     : REFMAC 5.5.0088                                      
   3   AUTHORS     : MURSHUDOV,VAGIN,DODSON                               
   3                                                                      
   3    REFINEMENT TARGET : MAXIMUM LIKELIHOOD                            
   3                                                                      
   3  DATA USED IN REFINEMENT.                                            
   3   RESOLUTION RANGE HIGH (ANGSTROMS) : 1.37                           
   3   RESOLUTION RANGE LOW  (ANGSTROMS) : 27.73                          
   3   DATA CUTOFF            (SIGMA(F)) : NULL                           
   3   COMPLETENESS FOR RANGE        (%) : 98.5                           
   3   NUMBER OF REFLECTIONS             : 46331                          
   3                                                                      
   3  FIT TO DATA USED IN REFINEMENT.                                     
   3   CROSS-VALIDATION METHOD          : THROUGHOUT                      
   3   FREE R VALUE TEST SET SELECTION  : RANDOM                          
   3   R VALUE     (WORKING + TEST SET) : 0.132                           
   3   R VALUE            (WORKING SET) : 0.130                           
   3   FREE R VALUE                     : 0.172                           
   3   FREE R VALUE TEST SET SIZE   (%) : 5.100                           
   3   FREE R VALUE TEST SET COUNT      : 2470                            
   3                                                                      
   3  FIT IN THE HIGHEST RESOLUTION BIN.                                  
   3   TOTAL NUMBER OF BINS USED           : 20                           
   3   BIN RESOLUTION RANGE HIGH       (A) : 1.37                         
   3   BIN RESOLUTION RANGE LOW        (A) : 1.40                         
   3   REFLECTION IN BIN     (WORKING SET) : 3119                         
   3   BIN COMPLETENESS (WORKING+TEST) (%) : 91.93                        
   3   BIN R VALUE           (WORKING SET) : 0.2540                       
   3   BIN FREE R VALUE SET COUNT          : 174                          
   3   BIN FREE R VALUE                    : 0.3140                       
   3                                                                      
   3  NUMBER OF NON-HYDROGEN ATOMS USED IN REFINEMENT.                    
   3   PROTEIN ATOMS            : 2024                                    
   3   NUCLEIC ACID ATOMS       : 0                                       
   3   HETEROGEN ATOMS          : 61                                      
   3   SOLVENT ATOMS            : 269                                     
   3                                                                      
   3  B VALUES.                                                           
   3   FROM WILSON PLOT           (A**2) : NULL                           
   3   MEAN B VALUE      (OVERALL, A**2) : 16.95                          
   3   OVERALL ANISOTROPIC B VALUE.                                       
   3    B11 (A**2) : 0.07000                                              
   3    B22 (A**2) : 0.01000                                              
   3    B33 (A**2) : -0.09000                                             
   3    B12 (A**2) : 0.00000                                              
   3    B13 (A**2) : 0.00000                                              
   3    B23 (A**2) : 0.00000                                              
   3                                                                      
   3  ESTIMATED OVERALL COORDINATE ERROR.                                 
   3   ESU BASED ON R VALUE                            (A): 0.058         
   3   ESU BASED ON FREE R VALUE                       (A): 0.055         
   3   ESU BASED ON MAXIMUM LIKELIHOOD                 (A): 0.030         
   3   ESU FOR B VALUES BASED ON MAXIMUM LIKELIHOOD (A**2): 1.647         
   3                                                                      
   3 CORRELATION COEFFICIENTS.                                            
   3   CORRELATION COEFFICIENT FO-FC      : 0.979                         
   3   CORRELATION COEFFICIENT FO-FC FREE : 0.967                         
   3                                                                      
   3  RMS DEVIATIONS FROM IDEAL VALUES        COUNT    RMS    WEIGHT      
   3   BOND LENGTHS REFINED ATOMS        (A):  2202 ; 0.010 ; 0.022       
   3   BOND LENGTHS OTHERS               (A):  NULL ;  NULL ;  NULL       
   3   BOND ANGLES REFINED ATOMS   (DEGREES):  2986 ; 1.359 ; 2.004       
   3   BOND ANGLES OTHERS          (DEGREES):  NULL ;  NULL ;  NULL       
   3   TORSION ANGLES, PERIOD 1    (DEGREES):   266 ; 5.940 ; 5.000       
   3   TORSION ANGLES, PERIOD 2    (DEGREES):    97 ;36.735 ;23.093       
   3   TORSION ANGLES, PERIOD 3    (DEGREES):   394 ;13.431 ;15.000       
   3   TORSION ANGLES, PERIOD 4    (DEGREES):    26 ;20.160 ;15.000       
   3   CHIRAL-CENTER RESTRAINTS       (A**3):   360 ; 0.089 ; 0.200       
   3   GENERAL PLANES REFINED ATOMS      (A):  1596 ; 0.006 ; 0.021       
   3   GENERAL PLANES OTHERS             (A):  NULL ;  NULL ;  NULL       
   3   NON-BONDED CONTACTS REFINED ATOMS (A):  NULL ;  NULL ;  NULL       
   3   NON-BONDED CONTACTS OTHERS        (A):  NULL ;  NULL ;  NULL       
   3   NON-BONDED TORSION REFINED ATOMS  (A):  NULL ;  NULL ;  NULL       
   3   NON-BONDED TORSION OTHERS         (A):  NULL ;  NULL ;  NULL       
   3   H-BOND (X...Y) REFINED ATOMS      (A):  NULL ;  NULL ;  NULL       
   3   H-BOND (X...Y) OTHERS             (A):  NULL ;  NULL ;  NULL       
   3   POTENTIAL METAL-ION REFINED ATOMS (A):  NULL ;  NULL ;  NULL       
   3   POTENTIAL METAL-ION OTHERS        (A):  NULL ;  NULL ;  NULL       
   3   SYMMETRY VDW REFINED ATOMS        (A):  NULL ;  NULL ;  NULL       
   3   SYMMETRY VDW OTHERS               (A):  NULL ;  NULL ;  NULL       
   3   SYMMETRY H-BOND REFINED ATOMS     (A):  NULL ;  NULL ;  NULL       
   3   SYMMETRY H-BOND OTHERS            (A):  NULL ;  NULL ;  NULL       
   3   SYMMETRY METAL-ION REFINED ATOMS  (A):  NULL ;  NULL ;  NULL       
   3   SYMMETRY METAL-ION OTHERS         (A):  NULL ;  NULL ;  NULL       
   3                                                                      
   3  ISOTROPIC THERMAL FACTOR RESTRAINTS.     COUNT   RMS    WEIGHT      
   3   MAIN-CHAIN BOND REFINED ATOMS  (A**2):  1344 ; 4.468 ; 1.500       
   3   MAIN-CHAIN BOND OTHER ATOMS    (A**2):  NULL ;  NULL ;  NULL       
   3   MAIN-CHAIN ANGLE REFINED ATOMS (A**2):  2176 ; 5.624 ; 2.000       
   3   MAIN-CHAIN ANGLE OTHER ATOMS   (A**2):  NULL ;  NULL ;  NULL       
   3   SIDE-CHAIN BOND REFINED ATOMS  (A**2):   858 ; 9.864 ; 3.000       
   3   SIDE-CHAIN BOND OTHER ATOMS    (A**2):  NULL ;  NULL ;  NULL       
   3   SIDE-CHAIN ANGLE REFINED ATOMS (A**2):   810 ;12.557 ; 4.500       
   3   SIDE-CHAIN ANGLE OTHER ATOMS   (A**2):  NULL ;  NULL ;  NULL       
   3   LONG RANGE B REFINED ATOMS     (A**2):  NULL ;  NULL ;  NULL       
   3   LONG RANGE B OTHER ATOMS       (A**2):  NULL ;  NULL ;  NULL       
   3                                                                      
   3 ANISOTROPIC THERMAL FACTOR RESTRAINTS.    COUNT   RMS   WEIGHT       
   3   RIGID-BOND RESTRAINTS          (A**2):  2202 ; 5.896 ; 3.000       
   3   SPHERICITY; FREE ATOMS         (A**2):   269 ;22.022 ; 3.000       
   3   SPHERICITY; BONDED ATOMS       (A**2):  2168 ;11.366 ; 3.000       
   3                                                                      
   3  NCS RESTRAINTS STATISTICS                                           
   3   NUMBER OF DIFFERENT NCS GROUPS : NULL                              
   3                                                                      
   3  TLS DETAILS                                                         
   3   NUMBER OF TLS GROUPS  : NULL                                       
   3                                                                      
   3  BULK SOLVENT MODELLING.                                             
   3   METHOD USED : MASK                                                 
   3   PARAMETERS FOR MASK CALCULATION                                    
   3   VDW PROBE RADIUS   : 1.40                                          
   3   ION PROBE RADIUS   : 0.80                                          
   3   SHRINKAGE RADIUS   : 0.80                                          
   3                                                                      
   3  OTHER REFINEMENT REMARKS: HYDROGENS HAVE BEEN ADDED IN THE RIDING   
   3  POSITIONS                                                           
   4                                                                      
   4 4R3B COMPLIES WITH FORMAT V. 3.30, 13-JUL-11                         
 100                                                                      
 100 THIS ENTRY HAS BEEN PROCESSED BY RCSB ON 15-AUG-14.                  
 100 THE RCSB ID CODE IS RCSB086845.                                      
 200                                                                      
 200 EXPERIMENTAL DETAILS                                                 
 200  EXPERIMENT TYPE                : X-RAY DIFFRACTION                  
 200  DATE OF DATA COLLECTION        : 26-JAN-10                          
 200  TEMPERATURE           (KELVIN) : 100                                
 200  PH                             : 6.8-8.2                            
 200  NUMBER OF CRYSTALS USED        : 1                                  
 200                                                                      
 200  SYNCHROTRON              (Y/N) : Y                                  
 200  RADIATION SOURCE               : SSRL                               
 200  BEAMLINE                       : BL9-2                              
 200  X-RAY GENERATOR MODEL          : NULL                               
 200  MONOCHROMATIC OR LAUE    (M/L) : M                                  
 200  WAVELENGTH OR RANGE        (A) : 0.9795                             
 200  MONOCHROMATOR                  : DOUBLE CRYSTAL MONOCHROMATOR       
 200  OPTICS                         : NULL                               
 200                                                                      
 200  DETECTOR TYPE                  : CCD                                
 200  DETECTOR MANUFACTURER          : MARMOSAIC 325 MM CCD               
 200  INTENSITY-INTEGRATION SOFTWARE : HKL-2000                           
 200  DATA SCALING SOFTWARE          : HKL-2000                           
 200                                                                      
 200  NUMBER OF UNIQUE REFLECTIONS   : 46331                              
 200  RESOLUTION RANGE HIGH      (A) : 1.366                              
 200  RESOLUTION RANGE LOW       (A) : 50.000                             
 200  REJECTION CRITERIA  (SIGMA(I)) : 1.000                              
 200                                                                      
 200 OVERALL.                                                             
 200  COMPLETENESS FOR RANGE     (%) : 98.6                               
 200  DATA REDUNDANCY                : 3.500                              
 200  R MERGE                    (I) : NULL                               
 200  R SYM                      (I) : 0.03500                            
 200  <I/SIGMA(I)> FOR THE DATA SET  : 28.3000                            
 200                                                                      
 200 IN THE HIGHEST RESOLUTION SHELL.                                     
 200  HIGHEST RESOLUTION SHELL, RANGE HIGH (A) : 1.37                     
 200  HIGHEST RESOLUTION SHELL, RANGE LOW  (A) : 1.42                     
 200  COMPLETENESS FOR SHELL     (%) : 94.7                               
 200  DATA REDUNDANCY IN SHELL       : NULL                               
 200  R MERGE FOR SHELL          (I) : NULL                               
 200  R SYM FOR SHELL            (I) : NULL                               
 200  <I/SIGMA(I)> FOR SHELL         : NULL                               
 200                                                                      
 200 DIFFRACTION PROTOCOL: SINGLE WAVELENGTH                              
 200 METHOD USED TO DETERMINE THE STRUCTURE: FOURIER SYNTHESIS            
 200 SOFTWARE USED: MOLREP                                                
 200 STARTING MODEL: NULL                                                 
 200                                                                      
 200 REMARK: NULL                                                         
 280                                                                      
 280 CRYSTAL                                                              
 280 SOLVENT CONTENT, VS   (%): 38.13                                     
 280 MATTHEWS COEFFICIENT, VM (ANGSTROMS**3/DA): 1.99                     
 280                                                                      
 280 CRYSTALLIZATION CONDITIONS: 21-30% PEG6000, 0.1M HEPES PH 6.2-8.2,   
 280  0.56MM CYMAL-6, VAPOR DIFFUSION, SITTING DROP, TEMPERATURE 293K     
 290                                                                      
 290 CRYSTALLOGRAPHIC SYMMETRY                                            
 290 SYMMETRY OPERATORS FOR SPACE GROUP: P 21 21 21                       
 290                                                                      
 290      SYMOP   SYMMETRY                                                
 290     NNNMMM   OPERATOR                                                
 290       1555   X,Y,Z                                                   
 290       2555   -X+1/2,-Y,Z+1/2                                         
 290       3555   -X,Y+1/2,-Z+1/2                                         
 290       4555   X+1/2,-Y+1/2,-Z                                         
 290                                                                      
 290     WHERE NNN -> OPERATOR NUMBER                                     
 290           MMM -> TRANSLATION VECTOR                                  
 290                                                                      
 290 CRYSTALLOGRAPHIC SYMMETRY TRANSFORMATIONS                            
 290 THE FOLLOWING TRANSFORMATIONS OPERATE ON THE ATOM/HETATM             
 290 RECORDS IN THIS ENTRY TO PRODUCE CRYSTALLOGRAPHICALLY                
 290 RELATED MOLECULES.                                                   
 290   SMTRY1   1  1.000000  0.000000  0.000000        0.00000            
 290   SMTRY2   1  0.000000  1.000000  0.000000        0.00000            
 290   SMTRY3   1  0.000000  0.000000  1.000000        0.00000            
 290   SMTRY1   2 -1.000000  0.000000  0.000000       24.61900            
 290   SMTRY2   2  0.000000 -1.000000  0.000000        0.00000            
 290   SMTRY3   2  0.000000  0.000000  1.000000       42.23250            
 290   SMTRY1   3 -1.000000  0.000000  0.000000        0.00000            
 290   SMTRY2   3  0.000000  1.000000  0.000000       27.63700            
 290   SMTRY3   3  0.000000  0.000000 -1.000000       42.23250            
 290   SMTRY1   4  1.000000  0.000000  0.000000       24.61900            
 290   SMTRY2   4  0.000000 -1.000000  0.000000       27.63700            
 290   SMTRY3   4  0.000000  0.000000 -1.000000        0.00000            
 290                                                                      
 290 REMARK: NULL                                                         
 300                                                                      
 300 BIOMOLECULE: 1                                                       
 300 SEE REMARK 350 FOR THE AUTHOR PROVIDED AND/OR PROGRAM                
 300 GENERATED ASSEMBLY INFORMATION FOR THE STRUCTURE IN                  
 300 THIS ENTRY. THE REMARK MAY ALSO PROVIDE INFORMATION ON               
 300 BURIED SURFACE AREA.                                                 
 350                                                                      
 350 COORDINATES FOR A COMPLETE MULTIMER REPRESENTING THE KNOWN           
 350 BIOLOGICALLY SIGNIFICANT OLIGOMERIZATION STATE OF THE                
 350 MOLECULE CAN BE GENERATED BY APPLYING BIOMT TRANSFORMATIONS          
 350 GIVEN BELOW.  BOTH NON-CRYSTALLOGRAPHIC AND                          
 350 CRYSTALLOGRAPHIC OPERATIONS ARE GIVEN.                               
 350                                                                      
 350 BIOMOLECULE: 1                                                       
 350 AUTHOR DETERMINED BIOLOGICAL UNIT: MONOMERIC                         
 350 SOFTWARE DETERMINED QUATERNARY STRUCTURE: MONOMERIC                  
 350 SOFTWARE USED: PISA                                                  
 350 APPLY THE FOLLOWING TO CHAINS: A                                     
 350   BIOMT1   1  1.000000  0.000000  0.000000        0.00000            
 350   BIOMT2   1  0.000000  1.000000  0.000000        0.00000            
 350   BIOMT3   1  0.000000  0.000000  1.000000        0.00000            
 500                                                                      
 500 GEOMETRY AND STEREOCHEMISTRY                                         
 500 SUBTOPIC: TORSION ANGLES                                             
 500                                                                      
 500 TORSION ANGLES OUTSIDE THE EXPECTED RAMACHANDRAN REGIONS:            
 500 (M=MODEL NUMBER; RES=RESIDUE NAME; C=CHAIN IDENTIFIER;               
 500 SSEQ=SEQUENCE NUMBER; I=INSERTION CODE).                             
 500                                                                      
 500 STANDARD TABLE:                                                      
 500 FORMAT:(10X,I3,1X,A3,1X,A1,I4,A1,4X,F7.2,3X,F7.2)                    
 500                                                                      
 500 EXPECTED VALUES: GJ KLEYWEGT AND TA JONES (1996). PHI/PSI-           
 500 CHOLOGY: RAMACHANDRAN REVISITED. STRUCTURE 4, 1395 - 1400            
 500                                                                      
 500  M RES CSSEQI        PSI       PHI                                   
 500    MET A  69     -143.89     50.50                                   
 500    TYR A 105       83.40     71.11                                   
 500    VAL A 159      -52.07   -120.59                                   
 500                                                                      
 500 REMARK: NULL                                                         
 610                                                                      
 610 MISSING HETEROATOM                                                   
 610 THE FOLLOWING RESIDUES HAVE MISSING ATOMS (M=MODEL NUMBER;           
 610 RES=RESIDUE NAME; C=CHAIN IDENTIFIER; SSEQ=SEQUENCE NUMBER;          
 610 I=INSERTION CODE):                                                   
 610   M RES C SSEQI                                                      
 610     MA4 A  303                                                       
 800                                                                      
 800 SITE                                                                 
 800 SITE_IDENTIFIER: AC1                                                 
 800 EVIDENCE_CODE: SOFTWARE                                              
 800 SITE_DESCRIPTION: BINDING SITE FOR RESIDUE MA4 A 301                 
 800                                                                      
 800 SITE_IDENTIFIER: AC2                                                 
 800 EVIDENCE_CODE: SOFTWARE                                              
 800 SITE_DESCRIPTION: BINDING SITE FOR RESIDUE 3GE A 302                 
 800                                                                      
 800 SITE_IDENTIFIER: AC3                                                 
 800 EVIDENCE_CODE: SOFTWARE                                              
 800 SITE_DESCRIPTION: BINDING SITE FOR RESIDUE MA4 A 303                 
 900                                                                      
 900 RELATED ENTRIES                                                      
 900 RELATED ID: 4FH4   RELATED DB: PDB                                   
 900 APO SHV-1                                                            
 900 RELATED ID: 2H4S   RELATED DB: PDB                                   
 900 SA2-13 PENAM SULFONE COMPLEXED TO WT SHV-1 BETA-LACTAMASE            

>  <DBREF>  (1) 
 4R3B A   26   292  UNP    P0AD64   BLA1_KLEPN      22    286             

>  <SEQRES>  (1) 
   1 A  265  SER PRO GLN PRO LEU GLU GLN ILE LYS LEU SER GLU SER          
   2 A  265  GLN LEU SER GLY ARG VAL GLY MET ILE GLU MET ASP LEU          
   3 A  265  ALA SER GLY ARG THR LEU THR ALA TRP ARG ALA ASP GLU          
   4 A  265  ARG PHE PRO MET MET SER THR PHE LYS VAL VAL LEU CYS          
   5 A  265  GLY ALA VAL LEU ALA ARG VAL ASP ALA GLY ASP GLU GLN          
   6 A  265  LEU GLU ARG LYS ILE HIS TYR ARG GLN GLN ASP LEU VAL          
   7 A  265  ASP TYR SER PRO VAL SER GLU LYS HIS LEU ALA ASP GLY          
   8 A  265  MET THR VAL GLY GLU LEU CYS ALA ALA ALA ILE THR MET          
   9 A  265  SER ASP ASN SER ALA ALA ASN LEU LEU LEU ALA THR VAL          
  10 A  265  GLY GLY PRO ALA GLY LEU THR ALA PHE LEU ARG GLN ILE          
  11 A  265  GLY ASP ASN VAL THR ARG LEU ASP ARG TRP GLU THR GLU          
  12 A  265  LEU ASN GLU ALA LEU PRO GLY ASP ALA ARG ASP THR THR          
  13 A  265  THR PRO ALA SER MET ALA ALA THR LEU ARG LYS LEU LEU          
  14 A  265  THR SER GLN ARG LEU SER ALA ARG SER GLN ARG GLN LEU          
  15 A  265  LEU GLN TRP MET VAL ASP ASP ARG VAL ALA GLY PRO LEU          
  16 A  265  ILE ARG SER VAL LEU PRO ALA GLY TRP PHE ILE ALA ASP          
  17 A  265  LYS THR GLY ALA GLY GLU ARG GLY ALA ARG GLY ILE VAL          
  18 A  265  ALA LEU LEU GLY PRO ASN ASN LYS ALA GLU ARG ILE VAL          
  19 A  265  VAL ILE TYR LEU ARG ASP THR PRO ALA SER MET ALA GLU          
  20 A  265  ARG ASN GLN GLN ILE ALA GLY ILE GLY ALA ALA LEU ILE          
  21 A  265  GLU HIS TRP GLN ARG                                          

>  <HET>  (1) 
 MA4  A 301      35                                                       
 3GE  A 302      18                                                       
 MA4  A 303       9                                                       

>  <HETNAM>  (1) 
     MA4 CYCLOHEXYL-HEXYL-BETA-D-MALTOSIDE                                
     3GE (2S)-3-[BIS(OXIDANYLIDENE)-$L^{5}-SULFANYL]-2-[[2-               
   2 3GE  (HYDROXYMETHYL)-3-OXIDANYL-PROPYL]AMINO]-3-METHYL-              
   3 3GE  BUTANOIC ACID                                                   

>  <FORMUL>  (1) 
   2  MA4    2(C24 H44 O11)                                               
   3  3GE    C9 H18 N O6 S                                                
   5  HOH   *269(H2 O)                                                    

>  <HELIX>  (1) 
   1   1 GLN A   28  SER A   41  1                                  14    
   2   2 THR A   71  ALA A   86  1                                  16    
   3   3 ARG A   98  LEU A  102  5                                   5    
   4   4 VAL A  108  LEU A  113  5                                   6    
   5   5 VAL A  119  SER A  130  1                                  12    
   6   6 ASP A  131  VAL A  142  1                                  12    
   7   7 GLY A  143  ILE A  155  1                                  13    
   8   8 THR A  167  GLU A  171  5                                   5    
   9   9 THR A  182  SER A  196  1                                  15    
  10  10 SER A  200  ASP A  213  1                                  14    
  11  11 ALA A  217  LEU A  225  1                                   9    
  12  12 GLU A  240  GLY A  242  5                                   3    
  13  13 SER A  271  HIS A  289  1                                  19    

>  <SHEET>  (1) 
   1   A 5 THR A  56  TRP A  60  0                                        
   2   A 5 ARG A  43  ASP A  50 -1  N  GLU A  48   O  LEU A  57           
   3   A 5 ARG A 259  ARG A 266 -1  O  ILE A 260   N  MET A  49           
   4   A 5 ARG A 244  GLY A 251 -1  N  ARG A 244   O  LEU A 265           
   5   A 5 PHE A 230  ALA A 237 -1  N  PHE A 230   O  GLY A 251           
   1   B 2 PHE A  66  PRO A  67  0                                        
   2   B 2 THR A 180  THR A 181 -1  O  THR A 181   N  PHE A  66           
   1   C 2 LYS A  94  ILE A  95  0                                        
   2   C 2 MET A 117  THR A 118 -1  O  MET A 117   N  ILE A  95           

>  <SSBOND>  (1) 
   1 CYS A   77    CYS A  123                          1555   1555  2.07  

>  <LINK>  (1) 
       OG  SER A  70                 CAI 3GE A 302     1555   1555  1.37  

>  <CISPEP>  (1) 
   1 GLU A  166    THR A  167          0         3.18                     

>  <SITE>  (1) 
   1 AC1 20 ARG A  93  LYS A  94  ILE A  95  HIS A  96                    
   2 AC1 20 ARG A  98  VAL A 224  PRO A 226  ALA A 248                    
   3 AC1 20 ILE A 263  ALA A 280  ALA A 284  GLU A 288                    
   4 AC1 20 HOH A 407  HOH A 459  HOH A 527  HOH A 561                    
   5 AC1 20 HOH A 569  HOH A 603  HOH A 647  HOH A 649                    
   1 AC2 12 MET A  69  SER A  70  LYS A  73  ASP A 104                    
   2 AC2 12 SER A 130  ASN A 132  GLU A 166  THR A 167                    
   3 AC2 12 ASN A 170  GLY A 236  ALA A 237  HOH A 414                    
   1 AC3  2 ARG A 244  ASN A 276                                          

>  <ORIGX1>  (1) 
      1.000000  0.000000  0.000000        0.00000                         

>  <ORIGX2>  (1) 
      0.000000  1.000000  0.000000        0.00000                         

>  <ORIGX3>  (1) 
      0.000000  0.000000  1.000000        0.00000                         

>  <SCALE1>  (1) 
      0.020310  0.000000  0.000000        0.00000                         

>  <SCALE2>  (1) 
      0.000000  0.018092  0.000000        0.00000                         

>  <SCALE3>  (1) 
      0.000000  0.000000  0.011839        0.00000                         

>  <ANISOU>  (1) 
  393  N   SER A  70      916   1493   1320     63     -2     23       N  
  394  CA  SER A  70     1490   1024   1458     77    115     -8       C  
  395  C   SER A  70     1038   1524   1296      1     18   -123       C  
  396  O   SER A  70      888   1299   1641     22    -87    -90       O  
  397  CB  SER A  70     1326   1898   1710    103     92    360       C  
  398  OG  SER A  70     2097   1665   2151    405    -57    490       O  
 2143  OAC 3GE A 302     1719   1960   2065   -582    -81    260       O  
 2144  CAI 3GE A 302     1657   2020   2861     36   -252    382       C  
 2145  CAN 3GE A 302     2647   2262   2915    482   -544    438       C  
 2146  CAK 3GE A 302     1937   2535   2329    287   -806    216       C  
 2147  OAGA3GE A 302     2399   2759   2384    961    -45   -780       O  
 2148  OAGB3GE A 302     2279   2928   2331   -783    764   -711       O  
 2149  CAJ 3GE A 302     3513   2533   3213    165  -1048    -24       C  
 2150  N   3GE A 302     3113   3452   5283    269  -1093   1218       N  
 2151  CA  3GE A 302     4624   4435   6231   -316  -1374    287       C  
 2152  C   3GE A 302     3807   3874   4664  -1228  -1714   -197       C  
 2153  O   3GE A 302     3880   4937   4817   -534    366     25       O  
 2154  OXT 3GE A 302     3787   4784   5798   -292  -2299   1853       O  
 2155  CB  3GE A 302     5210   4856   7283   -428   -888   -298       C  
 2156  CG1 3GE A 302     3905   2385   3808    952  -1777   -328       C  
 2157  CG2 3GE A 302     7462   5697   7704   -541   -323    283       C  
 2158  SAP 3GE A 302     5414   3908   8451    972   -455    735       S  
 2159  OAE 3GE A 302     2953   9434   9332  -1006    963   1168       O  
 2160  OAF 3GE A 302     9733   7850   4318    832   -878   2480       O  

>  <MASTER>  (1) 
      281    0    3   13    9    0    9    6 2354    1   65   21          

$$$$
