start_structures/Ligand_Substrate/Ligand_Complex_Stripped/CB9_3N8R.pdb
     RDKit          3D

 29 30  0  0  1  0  0  0  0  0999 V2000
   48.7967   51.8774   46.3360 N   0  0  0  0  0  0  0  0  0  0  0  0
   47.4473   51.3815   46.5442 C   0  0  2  0  0  0  0  0  0  0  0  0
   47.4045   49.8864   46.4404 C   0  0  0  0  0  0  0  0  0  0  0  0
   46.4741   49.2680   46.9365 O   0  0  0  0  0  0  0  0  0  0  0  0
   46.5143   52.0023   45.5112 C   0  0  0  0  0  0  0  0  0  0  0  0
   46.1631   53.3345   45.8718 O   0  0  0  0  0  0  0  0  0  0  0  0
   45.2648   53.6174   46.9024 C   0  0  0  0  0  0  0  0  0  0  0  0
   43.6911   55.4704   46.7398 N   0  0  0  0  0  0  0  0  0  0  0  0
   44.6785   52.6853   47.5186 O   0  0  0  0  0  0  0  0  0  0  0  0
   44.9934   55.0482   47.2547 C   0  0  1  0  0  0  0  0  0  0  0  0
   45.1416   55.3305   48.7563 C   0  0  2  0  0  0  0  0  0  0  0  0
   47.0785   56.9153   51.2049 C   0  0  0  0  0  0  0  0  0  0  0  0
   48.4837   57.1576   49.1706 C   0  0  0  0  0  0  0  0  0  0  0  0
   45.0768   59.1534   50.4275 O   0  0  0  0  0  0  0  0  0  0  0  0
   42.3562   54.2510   48.2310 O   0  0  0  0  0  0  0  0  0  0  0  0
   46.4633   59.9416   48.7837 O   0  0  0  0  0  0  0  0  0  0  0  0
   40.4197   52.8003   43.2384 C   0  0  0  0  0  0  0  0  0  0  0  0
   39.8972   52.5056   44.5015 C   0  0  0  0  0  0  0  0  0  0  0  0
   41.1838   53.9560   43.0497 C   0  0  0  0  0  0  0  0  0  0  0  0
   40.1374   53.3674   45.5761 C   0  0  0  0  0  0  0  0  0  0  0  0
   41.4243   54.8183   44.1238 C   0  0  0  0  0  0  0  0  0  0  0  0
   44.7912   56.7168   49.0544 N   0  0  0  0  0  0  0  0  0  0  0  0
   46.8504   54.9892   49.3168 S   0  0  0  0  0  0  0  0  0  0  0  0
   45.8106   58.9037   49.4345 C   0  0  0  0  0  0  0  0  0  0  0  0
   42.4252   55.0178   47.2339 C   0  0  0  0  0  0  0  0  0  0  0  0
   40.8970   54.5278   45.3875 C   0  0  0  0  0  0  0  0  0  0  0  0
   46.0187   57.4915   48.9710 C   0  0  1  0  0  0  0  0  0  0  0  0
   41.1750   55.4337   46.5385 C   0  0  0  0  0  0  0  0  0  0  0  0
   47.1253   56.7346   49.6940 C   0  0  0  0  0  0  0  0  0  0  0  0
  2  1  1  6
  2  3  1  0
  3  4  2  0
  5  2  1  0
  6  7  1  0
  6  5  1  0
  7  9  2  0
 10  8  1  1
  8 25  1  0
 10  7  1  0
 11 10  1  0
 11 22  1  6
 11 23  1  0
 12 29  1  0
 13 29  1  0
 14 24  2  0
 15 25  2  0
 16 24  1  0
 17 18  2  0
 17 19  1  0
 18 20  1  0
 19 21  2  0
 20 26  2  0
 21 26  1  0
 22 27  1  0
 23 29  1  0
 25 28  1  0
 26 28  1  0
 27 24  1  1
 27 29  1  0
M  END
>  <HEADER>  (1) 
    HYDROLASE/ANTIBIOTIC                    28-MAY-10   3N8R              

>  <TITLE>  (1) 
    CRYSTAL STRUCTURE OF BLAC-E166A COVALENTLY BOUND WITH CARBENICILLIN   

>  <COMPND>  (1) 
    MOL_ID: 1;                                                            
   2 MOLECULE: BETA-LACTAMASE;                                            
   3 CHAIN: A;                                                            
   4 SYNONYM: PENICILLINASE;                                              
   5 EC: 3.5.2.6;                                                         
   6 ENGINEERED: YES;                                                     
   7 MUTATION: YES                                                        

>  <SOURCE>  (1) 
    MOL_ID: 1;                                                            
   2 ORGANISM_SCIENTIFIC: MYCOBACTERIUM TUBERCULOSIS;                     
   3 ORGANISM_TAXID: 1773;                                                
   4 STRAIN: H37RV;                                                       
   5 GENE: BLAA, BLAC, MT2128, MTCY49.07C, RV2068C;                       
   6 EXPRESSION_SYSTEM: ESCHERICHIA COLI;                                 
   7 EXPRESSION_SYSTEM_TAXID: 562;                                        
   8 EXPRESSION_SYSTEM_STRAIN: ROSETTA2;                                  
   9 EXPRESSION_SYSTEM_VECTOR: PLASMID;                                   
  10 EXPRESSION_SYSTEM_PLASMID: PET28A                                    

>  <KEYWDS>  (1) 
    PENICILLIN BINDING PROTEIN, BETA-LACTAM COVALENT ADDUCT, HYDROLASE-   
   2 ANTIBIOTIC COMPLEX                                                   

>  <EXPDTA>  (1) 
    X-RAY DIFFRACTION                                                     

>  <AUTHOR>  (1) 
    L.W.TREMBLAY,J.S.BLANCHARD                                            

>  <REVDAT>  (1) 
   3   08-NOV-17 3N8R    1       REMARK                                   
   2   16-MAY-12 3N8R    1       REMARK HET    HETNAM FORMUL              
   2 2                   1       HETATM HEADER KEYWDS HETSYN              
   1   14-DEC-11 3N8R    0                                                

>  <JRNL>  (1) 
      AUTH   L.W.TREMBLAY,J.S.BLANCHARD                                   
      TITL   BLAC-E166A BOUND WITH BETA-LACTAMS FROM ALL CLASSES          
      REF    TO BE PUBLISHED                                              
      REFN                                                                

>  <REMARK>  (1) 
   2                                                                      
   2 RESOLUTION.    1.41 ANGSTROMS.                                       
   3                                                                      
   3 REFINEMENT.                                                          
   3   PROGRAM     : REFMAC                                               
   3   AUTHORS     : MURSHUDOV,VAGIN,DODSON                               
   3                                                                      
   3    REFINEMENT TARGET : MAXIMUM LIKELIHOOD                            
   3                                                                      
   3  DATA USED IN REFINEMENT.                                            
   3   RESOLUTION RANGE HIGH (ANGSTROMS) : 1.41                           
   3   RESOLUTION RANGE LOW  (ANGSTROMS) : 37.69                          
   3   DATA CUTOFF            (SIGMA(F)) : 0.000                          
   3   COMPLETENESS FOR RANGE        (%) : 100.0                          
   3   NUMBER OF REFLECTIONS             : 47281                          
   3                                                                      
   3  FIT TO DATA USED IN REFINEMENT.                                     
   3   CROSS-VALIDATION METHOD          : THROUGHOUT                      
   3   FREE R VALUE TEST SET SELECTION  : RANDOM                          
   3   R VALUE     (WORKING + TEST SET) : 0.149                           
   3   R VALUE            (WORKING SET) : 0.147                           
   3   FREE R VALUE                     : 0.182                           
   3   FREE R VALUE TEST SET SIZE   (%) : 5.100                           
   3   FREE R VALUE TEST SET COUNT      : 2523                            
   3                                                                      
   3  FIT IN THE HIGHEST RESOLUTION BIN.                                  
   3   TOTAL NUMBER OF BINS USED           : 20                           
   3   BIN RESOLUTION RANGE HIGH       (A) : 1.41                         
   3   BIN RESOLUTION RANGE LOW        (A) : 1.45                         
   3   REFLECTION IN BIN     (WORKING SET) : 3451                         
   3   BIN COMPLETENESS (WORKING+TEST) (%) : 100.0                        
   3   BIN R VALUE           (WORKING SET) : 0.2620                       
   3   BIN FREE R VALUE SET COUNT          : 160                          
   3   BIN FREE R VALUE                    : 0.3510                       
   3                                                                      
   3  NUMBER OF NON-HYDROGEN ATOMS USED IN REFINEMENT.                    
   3   PROTEIN ATOMS            : 1984                                    
   3   NUCLEIC ACID ATOMS       : 0                                       
   3   HETEROGEN ATOMS          : 28                                      
   3   SOLVENT ATOMS            : 296                                     
   3                                                                      
   3  B VALUES.                                                           
   3   FROM WILSON PLOT           (A**2) : 12.90                          
   3   MEAN B VALUE      (OVERALL, A**2) : 12.73                          
   3   OVERALL ANISOTROPIC B VALUE.                                       
   3    B11 (A**2) : 0.02000                                              
   3    B22 (A**2) : -0.01000                                             
   3    B33 (A**2) : -0.01000                                             
   3    B12 (A**2) : 0.00000                                              
   3    B13 (A**2) : 0.00000                                              
   3    B23 (A**2) : 0.00000                                              
   3                                                                      
   3  ESTIMATED OVERALL COORDINATE ERROR.                                 
   3   ESU BASED ON R VALUE                            (A): NULL          
   3   ESU BASED ON FREE R VALUE                       (A): 0.058         
   3   ESU BASED ON MAXIMUM LIKELIHOOD                 (A): 0.033         
   3   ESU FOR B VALUES BASED ON MAXIMUM LIKELIHOOD (A**2): 1.865         
   3                                                                      
   3 CORRELATION COEFFICIENTS.                                            
   3   CORRELATION COEFFICIENT FO-FC      : 0.970                         
   3   CORRELATION COEFFICIENT FO-FC FREE : 0.958                         
   3                                                                      
   3  RMS DEVIATIONS FROM IDEAL VALUES        COUNT    RMS    WEIGHT      
   3   BOND LENGTHS REFINED ATOMS        (A):  2051 ; 0.011 ; 0.022       
   3   BOND LENGTHS OTHERS               (A):  NULL ;  NULL ;  NULL       
   3   BOND ANGLES REFINED ATOMS   (DEGREES):  2802 ; 1.393 ; 1.979       
   3   BOND ANGLES OTHERS          (DEGREES):  NULL ;  NULL ;  NULL       
   3   TORSION ANGLES, PERIOD 1    (DEGREES):   264 ; 6.253 ; 5.000       
   3   TORSION ANGLES, PERIOD 2    (DEGREES):    87 ;37.632 ;23.103       
   3   TORSION ANGLES, PERIOD 3    (DEGREES):   302 ;11.461 ;15.000       
   3   TORSION ANGLES, PERIOD 4    (DEGREES):    19 ;23.388 ;15.000       
   3   CHIRAL-CENTER RESTRAINTS       (A**3):   323 ; 0.086 ; 0.200       
   3   GENERAL PLANES REFINED ATOMS      (A):  1579 ; 0.008 ; 0.021       
   3   GENERAL PLANES OTHERS             (A):  NULL ;  NULL ;  NULL       
   3   NON-BONDED CONTACTS REFINED ATOMS (A):  NULL ;  NULL ;  NULL       
   3   NON-BONDED CONTACTS OTHERS        (A):  NULL ;  NULL ;  NULL       
   3   NON-BONDED TORSION REFINED ATOMS  (A):  NULL ;  NULL ;  NULL       
   3   NON-BONDED TORSION OTHERS         (A):  NULL ;  NULL ;  NULL       
   3   H-BOND (X...Y) REFINED ATOMS      (A):  NULL ;  NULL ;  NULL       
   3   H-BOND (X...Y) OTHERS             (A):  NULL ;  NULL ;  NULL       
   3   POTENTIAL METAL-ION REFINED ATOMS (A):  NULL ;  NULL ;  NULL       
   3   POTENTIAL METAL-ION OTHERS        (A):  NULL ;  NULL ;  NULL       
   3   SYMMETRY VDW REFINED ATOMS        (A):  NULL ;  NULL ;  NULL       
   3   SYMMETRY VDW OTHERS               (A):  NULL ;  NULL ;  NULL       
   3   SYMMETRY H-BOND REFINED ATOMS     (A):  NULL ;  NULL ;  NULL       
   3   SYMMETRY H-BOND OTHERS            (A):  NULL ;  NULL ;  NULL       
   3   SYMMETRY METAL-ION REFINED ATOMS  (A):  NULL ;  NULL ;  NULL       
   3   SYMMETRY METAL-ION OTHERS         (A):  NULL ;  NULL ;  NULL       
   3                                                                      
   3  ISOTROPIC THERMAL FACTOR RESTRAINTS.     COUNT   RMS    WEIGHT      
   3   MAIN-CHAIN BOND REFINED ATOMS  (A**2):  1320 ; 1.264 ; 1.500       
   3   MAIN-CHAIN BOND OTHER ATOMS    (A**2):  NULL ;  NULL ;  NULL       
   3   MAIN-CHAIN ANGLE REFINED ATOMS (A**2):  2110 ; 1.982 ; 2.000       
   3   MAIN-CHAIN ANGLE OTHER ATOMS   (A**2):  NULL ;  NULL ;  NULL       
   3   SIDE-CHAIN BOND REFINED ATOMS  (A**2):   731 ; 3.116 ; 3.000       
   3   SIDE-CHAIN BOND OTHER ATOMS    (A**2):  NULL ;  NULL ;  NULL       
   3   SIDE-CHAIN ANGLE REFINED ATOMS (A**2):   692 ; 4.615 ; 4.500       
   3   SIDE-CHAIN ANGLE OTHER ATOMS   (A**2):  NULL ;  NULL ;  NULL       
   3   LONG RANGE B REFINED ATOMS     (A**2):  NULL ;  NULL ;  NULL       
   3   LONG RANGE B OTHER ATOMS       (A**2):  NULL ;  NULL ;  NULL       
   3                                                                      
   3 ANISOTROPIC THERMAL FACTOR RESTRAINTS.    COUNT   RMS   WEIGHT       
   3   RIGID-BOND RESTRAINTS          (A**2):  2051 ; 1.419 ; 3.000       
   3   SPHERICITY; FREE ATOMS         (A**2):  NULL ;  NULL ;  NULL       
   3   SPHERICITY; BONDED ATOMS       (A**2):  NULL ;  NULL ;  NULL       
   3                                                                      
   3  NCS RESTRAINTS STATISTICS                                           
   3   NUMBER OF DIFFERENT NCS GROUPS : NULL                              
   3                                                                      
   3  TLS DETAILS                                                         
   3   NUMBER OF TLS GROUPS  : NULL                                       
   3                                                                      
   3  BULK SOLVENT MODELLING.                                             
   3   METHOD USED : MASK                                                 
   3   PARAMETERS FOR MASK CALCULATION                                    
   3   VDW PROBE RADIUS   : 1.40                                          
   3   ION PROBE RADIUS   : 0.80                                          
   3   SHRINKAGE RADIUS   : 0.80                                          
   3                                                                      
   3  OTHER REFINEMENT REMARKS: HYDROGENS HAVE BEEN ADDED IN THE RIDING   
   3  POSITIONS. U VALUES REFINED INDIVIDUALLY                            
   4                                                                      
   4 3N8R COMPLIES WITH FORMAT V. 3.30, 13-JUL-11                         
 100                                                                      
 100 THIS ENTRY HAS BEEN PROCESSED BY RCSB ON 09-JUN-10.                  
 100 THE DEPOSITION ID IS D_1000059522.                                   
 200                                                                      
 200 EXPERIMENTAL DETAILS                                                 
 200  EXPERIMENT TYPE                : X-RAY DIFFRACTION                  
 200  DATE OF DATA COLLECTION        : NULL; NULL                         
 200  TEMPERATURE           (KELVIN) : 100; 100                           
 200  PH                             : 7.5                                
 200  NUMBER OF CRYSTALS USED        : 1                                  
 200                                                                      
 200  SYNCHROTRON              (Y/N) : Y; Y                               
 200  RADIATION SOURCE               : NSLS; NSLS                         
 200  BEAMLINE                       : X12C; X29A                         
 200  X-RAY GENERATOR MODEL          : NULL; NULL                         
 200  MONOCHROMATIC OR LAUE    (M/L) : NULL; NULL                         
 200  WAVELENGTH OR RANGE        (A) : 1.000; 1.000                       
 200  MONOCHROMATOR                  : SI(111) CHANNEL CUT; SI(111)       
 200                                   CHANNEL CUT                        
 200  OPTICS                         : NULL; NULL                         
 200                                                                      
 200  DETECTOR TYPE                  : CCD; CCD                           
 200  DETECTOR MANUFACTURER          : ADSC QUANTUM 210; ADSC QUANTUM     
 200                                   210                                
 200  INTENSITY-INTEGRATION SOFTWARE : HKL-2000                           
 200  DATA SCALING SOFTWARE          : HKL-2000                           
 200                                                                      
 200  NUMBER OF UNIQUE REFLECTIONS   : 49804                              
 200  RESOLUTION RANGE HIGH      (A) : 1.410                              
 200  RESOLUTION RANGE LOW       (A) : 37.690                             
 200  REJECTION CRITERIA  (SIGMA(I)) : 0.000                              
 200                                                                      
 200 OVERALL.                                                             
 200  COMPLETENESS FOR RANGE     (%) : 100.0                              
 200  DATA REDUNDANCY                : 4.200                              
 200  R MERGE                    (I) : 0.06700                            
 200  R SYM                      (I) : NULL                               
 200  <I/SIGMA(I)> FOR THE DATA SET  : 23.1000                            
 200                                                                      
 200 IN THE HIGHEST RESOLUTION SHELL.                                     
 200  HIGHEST RESOLUTION SHELL, RANGE HIGH (A) : 1.41                     
 200  HIGHEST RESOLUTION SHELL, RANGE LOW  (A) : 1.45                     
 200  COMPLETENESS FOR SHELL     (%) : 100.0                              
 200  DATA REDUNDANCY IN SHELL       : 6.90                               
 200  R MERGE FOR SHELL          (I) : 0.82700                            
 200  R SYM FOR SHELL            (I) : NULL                               
 200  <I/SIGMA(I)> FOR SHELL         : 2.000                              
 200                                                                      
 200 DIFFRACTION PROTOCOL: SINGLE WAVELENGTH; SINGLE WAVELENGTH           
 200 METHOD USED TO DETERMINE THE STRUCTURE: MOLECULAR REPLACEMENT        
 200 SOFTWARE USED: DIRECT                                                
 200 STARTING MODEL: PDB ENTRY 3DWZ                                       
 200                                                                      
 200 REMARK: NULL                                                         
 280                                                                      
 280 CRYSTAL                                                              
 280 SOLVENT CONTENT, VS   (%): 45.33                                     
 280 MATTHEWS COEFFICIENT, VM (ANGSTROMS**3/DA): 2.25                     
 280                                                                      
 280 CRYSTALLIZATION CONDITIONS: 0.1 M HEPES, 2 M NH4H2PO4, PH 7.5,       
 280  VAPOR DIFFUSION, SITTING DROP, TEMPERATURE 298K                     
 290                                                                      
 290 CRYSTALLOGRAPHIC SYMMETRY                                            
 290 SYMMETRY OPERATORS FOR SPACE GROUP: P 21 21 21                       
 290                                                                      
 290      SYMOP   SYMMETRY                                                
 290     NNNMMM   OPERATOR                                                
 290       1555   X,Y,Z                                                   
 290       2555   -X+1/2,-Y,Z+1/2                                         
 290       3555   -X,Y+1/2,-Z+1/2                                         
 290       4555   X+1/2,-Y+1/2,-Z                                         
 290                                                                      
 290     WHERE NNN -> OPERATOR NUMBER                                     
 290           MMM -> TRANSLATION VECTOR                                  
 290                                                                      
 290 CRYSTALLOGRAPHIC SYMMETRY TRANSFORMATIONS                            
 290 THE FOLLOWING TRANSFORMATIONS OPERATE ON THE ATOM/HETATM             
 290 RECORDS IN THIS ENTRY TO PRODUCE CRYSTALLOGRAPHICALLY                
 290 RELATED MOLECULES.                                                   
 290   SMTRY1   1  1.000000  0.000000  0.000000        0.00000            
 290   SMTRY2   1  0.000000  1.000000  0.000000        0.00000            
 290   SMTRY3   1  0.000000  0.000000  1.000000        0.00000            
 290   SMTRY1   2 -1.000000  0.000000  0.000000       24.81550            
 290   SMTRY2   2  0.000000 -1.000000  0.000000        0.00000            
 290   SMTRY3   2  0.000000  0.000000  1.000000       37.69500            
 290   SMTRY1   3 -1.000000  0.000000  0.000000        0.00000            
 290   SMTRY2   3  0.000000  1.000000  0.000000       33.92800            
 290   SMTRY3   3  0.000000  0.000000 -1.000000       37.69500            
 290   SMTRY1   4  1.000000  0.000000  0.000000       24.81550            
 290   SMTRY2   4  0.000000 -1.000000  0.000000       33.92800            
 290   SMTRY3   4  0.000000  0.000000 -1.000000        0.00000            
 290                                                                      
 290 REMARK: NULL                                                         
 300                                                                      
 300 BIOMOLECULE: 1                                                       
 300 SEE REMARK 350 FOR THE AUTHOR PROVIDED AND/OR PROGRAM                
 300 GENERATED ASSEMBLY INFORMATION FOR THE STRUCTURE IN                  
 300 THIS ENTRY. THE REMARK MAY ALSO PROVIDE INFORMATION ON               
 300 BURIED SURFACE AREA.                                                 
 350                                                                      
 350 COORDINATES FOR A COMPLETE MULTIMER REPRESENTING THE KNOWN           
 350 BIOLOGICALLY SIGNIFICANT OLIGOMERIZATION STATE OF THE                
 350 MOLECULE CAN BE GENERATED BY APPLYING BIOMT TRANSFORMATIONS          
 350 GIVEN BELOW.  BOTH NON-CRYSTALLOGRAPHIC AND                          
 350 CRYSTALLOGRAPHIC OPERATIONS ARE GIVEN.                               
 350                                                                      
 350 BIOMOLECULE: 1                                                       
 350 AUTHOR DETERMINED BIOLOGICAL UNIT: MONOMERIC                         
 350 SOFTWARE DETERMINED QUATERNARY STRUCTURE: MONOMERIC                  
 350 SOFTWARE USED: PISA                                                  
 350 APPLY THE FOLLOWING TO CHAINS: A                                     
 350   BIOMT1   1  1.000000  0.000000  0.000000        0.00000            
 350   BIOMT2   1  0.000000  1.000000  0.000000        0.00000            
 350   BIOMT3   1  0.000000  0.000000  1.000000        0.00000            
 500                                                                      
 500 GEOMETRY AND STEREOCHEMISTRY                                         
 500 SUBTOPIC: COVALENT BOND LENGTHS                                      
 500                                                                      
 500 THE STEREOCHEMICAL PARAMETERS OF THE FOLLOWING RESIDUES              
 500 HAVE VALUES WHICH DEVIATE FROM EXPECTED VALUES BY MORE               
 500 THAN 6*RMSD (M=MODEL NUMBER; RES=RESIDUE NAME; C=CHAIN               
 500 IDENTIFIER; SSEQ=SEQUENCE NUMBER; I=INSERTION CODE).                 
 500                                                                      
 500 STANDARD TABLE:                                                      
 500 FORMAT: (10X,I3,1X,2(A3,1X,A1,I4,A1,1X,A4,3X),1X,F6.3)               
 500                                                                      
 500 EXPECTED VALUES PROTEIN: ENGH AND HUBER, 1999                        
 500 EXPECTED VALUES NUCLEIC ACID: CLOWNEY ET AL 1996                     
 500                                                                      
 500  M RES CSSEQI ATM1   RES CSSEQI ATM2   DEVIATION                     
 500    TYR A 109   CD1   TYR A 109   CE1    -0.114                       
 500    TYR A 109   CE2   TYR A 109   CD2    -0.111                       
 500                                                                      
 500 REMARK: NULL                                                         
 500                                                                      
 500 GEOMETRY AND STEREOCHEMISTRY                                         
 500 SUBTOPIC: TORSION ANGLES                                             
 500                                                                      
 500 TORSION ANGLES OUTSIDE THE EXPECTED RAMACHANDRAN REGIONS:            
 500 (M=MODEL NUMBER; RES=RESIDUE NAME; C=CHAIN IDENTIFIER;               
 500 SSEQ=SEQUENCE NUMBER; I=INSERTION CODE).                             
 500                                                                      
 500 STANDARD TABLE:                                                      
 500 FORMAT:(10X,I3,1X,A3,1X,A1,I4,A1,4X,F7.2,3X,F7.2)                    
 500                                                                      
 500 EXPECTED VALUES: GJ KLEYWEGT AND TA JONES (1996). PHI/PSI-           
 500 CHOLOGY: RAMACHANDRAN REVISITED. STRUCTURE 4, 1395 - 1400            
 500                                                                      
 500  M RES CSSEQI        PSI       PHI                                   
 500    CYS A  83     -141.74     44.58                                   
 500    GLU A 181     -169.44   -105.37                                   
 500    ARG A 236     -122.27   -116.33                                   
 500                                                                      
 500 REMARK: NULL                                                         
 610                                                                      
 610 MISSING HETEROATOM                                                   
 610 THE FOLLOWING RESIDUES HAVE MISSING ATOMS (M=MODEL NUMBER;           
 610 RES=RESIDUE NAME; C=CHAIN IDENTIFIER; SSEQ=SEQUENCE NUMBER;          
 610 I=INSERTION CODE):                                                   
 610   M RES C SSEQI                                                      
 610     CB9 A  308                                                       
 800                                                                      
 800 SITE                                                                 
 800 SITE_IDENTIFIER: AC1                                                 
 800 EVIDENCE_CODE: SOFTWARE                                              
 800 SITE_DESCRIPTION: BINDING SITE FOR RESIDUE PO4 A 1                   
 800                                                                      
 800 SITE_IDENTIFIER: AC2                                                 
 800 EVIDENCE_CODE: SOFTWARE                                              
 800 SITE_DESCRIPTION: BINDING SITE FOR RESIDUE CB9 A 308                 

>  <DBREF>  (1) 
 3N8R A   43   307  UNP    P0C5C1   BLAC_MYCTU      43    307             

>  <SEQADV>  (1) 
 3N8R ALA A  182  UNP  P0C5C1    GLU   182 ENGINEERED MUTATION            

>  <SEQRES>  (1) 
   1 A  265  ASP LEU ALA ASP ARG PHE ALA GLU LEU GLU ARG ARG TYR          
   2 A  265  ASP ALA ARG LEU GLY VAL TYR VAL PRO ALA THR GLY THR          
   3 A  265  THR ALA ALA ILE GLU TYR ARG ALA ASP GLU ARG PHE ALA          
   4 A  265  PHE CYS SER THR PHE LYS ALA PRO LEU VAL ALA ALA VAL          
   5 A  265  LEU HIS GLN ASN PRO LEU THR HIS LEU ASP LYS LEU ILE          
   6 A  265  THR TYR THR SER ASP ASP ILE ARG SER ILE SER PRO VAL          
   7 A  265  ALA GLN GLN HIS VAL GLN THR GLY MET THR ILE GLY GLN          
   8 A  265  LEU CYS ASP ALA ALA ILE ARG TYR SER ASP GLY THR ALA          
   9 A  265  ALA ASN LEU LEU LEU ALA ASP LEU GLY GLY PRO GLY GLY          
  10 A  265  GLY THR ALA ALA PHE THR GLY TYR LEU ARG SER LEU GLY          
  11 A  265  ASP THR VAL SER ARG LEU ASP ALA GLU ALA PRO GLU LEU          
  12 A  265  ASN ARG ASP PRO PRO GLY ASP GLU ARG ASP THR THR THR          
  13 A  265  PRO HIS ALA ILE ALA LEU VAL LEU GLN GLN LEU VAL LEU          
  14 A  265  GLY ASN ALA LEU PRO PRO ASP LYS ARG ALA LEU LEU THR          
  15 A  265  ASP TRP MET ALA ARG ASN THR THR GLY ALA LYS ARG ILE          
  16 A  265  ARG ALA GLY PHE PRO ALA ASP TRP LYS VAL ILE ASP LYS          
  17 A  265  THR GLY THR GLY ASP TYR GLY ARG ALA ASN ASP ILE ALA          
  18 A  265  VAL VAL TRP SER PRO THR GLY VAL PRO TYR VAL VAL ALA          
  19 A  265  VAL MET SER ASP ARG ALA GLY GLY GLY TYR ASP ALA GLU          
  20 A  265  PRO ARG GLU ALA LEU LEU ALA GLU ALA ALA THR CYS VAL          
  21 A  265  ALA GLY VAL LEU ALA                                          

>  <HET>  (1) 
 PO4  A   1       5                                                       
 CB9  A 308      23                                                       

>  <HETNAM>  (1) 
     PO4 PHOSPHATE ION                                                    
     CB9 (2R,4S)-2-[(1R)-1-{[(2S)-2-CARBOXY-2-                            
   2 CB9  PHENYLACETYL]AMINO}-2-OXOETHYL]-5,5-DIMETHYL-1,3-               
   3 CB9  THIAZOLIDINE-4-CARBOXYLIC ACID                                  

>  <HETSYN>  (1) 
     CB9 BOUND FORM OF CARBENICILLIN                                      

>  <FORMUL>  (1) 
   2  PO4    O4 P 3-                                                      
   3  CB9    C17 H20 N2 O6 S                                              
   4  HOH   *296(H2 O)                                                    

>  <HELIX>  (1) 
   1   1 ASP A   43  ASP A   56  1                                  14    
   2   2 CYS A   83  THR A   85  5                                   3    
   3   3 PHE A   86  ASN A   98  1                                  13    
   4   4 PRO A   99  ASP A  104  5                                   6    
   5   5 THR A  110  ILE A  114  5                                   5    
   6   6 VAL A  120  HIS A  124  5                                   5    
   7   7 ILE A  131  TYR A  141  1                                  11    
   8   8 ASP A  143  GLY A  155  1                                  13    
   9   9 PRO A  157  GLY A  159  5                                   3    
  10  10 GLY A  160  LEU A  171  1                                  12    
  11  11 PRO A  183  ARG A  187  5                                   5    
  12  12 THR A  198  LEU A  211  1                                  14    
  13  13 PRO A  216  ARG A  229  1                                  14    
  14  14 ARG A  236  PHE A  241  1                                   6    
  15  15 ARG A  281  GLY A  285  5                                   5    
  16  16 ARG A  291  ALA A  307  1                                  17    

>  <SHEET>  (1) 
   1   A 5 ILE A  72  TYR A  74  0                                        
   2   A 5 ARG A  58  VAL A  63 -1  N  VAL A  61   O  TYR A  74           
   3   A 5 PRO A 272  ASP A 280 -1  O  MET A 278   N  GLY A  60           
   4   A 5 ARG A 258  TRP A 266 -1  N  VAL A 265   O  TYR A 273           
   5   A 5 LYS A 246  GLY A 254 -1  N  GLY A 252   O  ASN A 260           
   1   B 2 PHE A  80  ALA A  81  0                                        
   2   B 2 THR A 196  THR A 197 -1  O  THR A 197   N  PHE A  80           
   1   C 2 LEU A 106  ILE A 107  0                                        
   2   C 2 MET A 129  THR A 130 -1  O  MET A 129   N  ILE A 107           

>  <LINK>  (1) 
       OG  SER A  84                 C   CB9 A 308     1555   1555  1.36  

>  <CISPEP>  (1) 
   1 ALA A  182    PRO A  183          0         2.65                     

>  <SITE>  (1) 
   1 AC1 10 HOH A  21  HOH A  41  ARG A  79  ARG A 187                    
   2 AC1 10 GLU A 193  ASP A 255  TYR A 286  CB9 A 308                    
   3 AC1 10 HOH A 462  HOH A 495                                          
   1 AC2 15 PO4 A   1  HOH A  19  CYS A  83  SER A  84                    
   2 AC2 15 ILE A 117  SER A 142  ASN A 186  GLU A 193                    
   3 AC2 15 THR A 251  GLY A 252  THR A 253  HOH A 326                    
   4 AC2 15 HOH A 336  HOH A 404  HOH A 509                               

>  <ORIGX1>  (1) 
      1.000000  0.000000  0.000000        0.00000                         

>  <ORIGX2>  (1) 
      0.000000  1.000000  0.000000        0.00000                         

>  <ORIGX3>  (1) 
      0.000000  0.000000  1.000000        0.00000                         

>  <SCALE1>  (1) 
      0.020149  0.000000  0.000000        0.00000                         

>  <SCALE2>  (1) 
      0.000000  0.014737  0.000000        0.00000                         

>  <SCALE3>  (1) 
      0.000000  0.000000  0.013264        0.00000                         

>  <ANISOU>  (1) 
  332  N   SER A  84      341    786    858   -123    -11    -44       N  
  333  CA  SER A  84      396    691    808   -151    -44   -169       C  
  334  C   SER A  84      364    711    750    -40    -90    -64       C  
  335  O   SER A  84      570    867    799     12   -132    -32       O  
  336  CB  SER A  84      287    795    996   -108     51   -136       C  
  337  OG  SER A  84      528    963   1131     63   -145    -56       O  
 1991  C   CB9 A 308      717    890   1039     32     88    -81       C  
 1992  N   CB9 A 308      840   1085   1101     85     47    -39       N  
 1993  O   CB9 A 308      681    818   1006   -104     42    -87       O  
 1994  CA  CB9 A 308      692   1014   1156     11     14    -35       C  
 1995  CB  CB9 A 308      710    943   1200     59    -65    -13       C  
 1996  CAA CB9 A 308      656   1654    895    173    208     41       C  
 1997  CAB CB9 A 308      880   1614   1184   -130    -88   -116       C  
 1998  OAD CB9 A 308     1283    937   1211    -12    -53     55       O  
 1999  OAF CB9 A 308      906   1404   1338    217    -65     44       O  
 2000  OAG CB9 A 308     1021   1388   1422     51   -136    -94       O  
 2001  CAJ CB9 A 308     2939   2829   3012    443    751    203       C  
 2002  CAK CB9 A 308     2809   3101   2941    370    787     92       C  
 2003  CAL CB9 A 308     2543   2660   2969    253   1091    109       C  
 2004  CAM CB9 A 308     2592   2838   2823    287    681     44       C  
 2005  CAN CB9 A 308     2507   2471   2488    486    945     40       C  
 2006  NAP CB9 A 308      836    860   1085   -134   -148    134       N  
 2007  SAQ CB9 A 308      835   1282   1589     45     83    -74       S  
 2008  CAR CB9 A 308      901   1131   1016     13      6    -52       C  
 2009  CAT CB9 A 308      871   1102   1313    122    -16    -33       C  
 2010  CAU CB9 A 308     2190   2511   2298    254    856     72       C  
 2011  CAX CB9 A 308      533   1236   1086    -38    126    114       C  
 2012  CAY CB9 A 308     1394   1672   1413    243    393   -132       C  
 2013  CAZ CB9 A 308      552   1254    955     -2    173     10       C  

>  <MASTER>  (1) 
      293    0    2   16    9    0    7    6 2308    1   29   21          

$$$$
