start_structures/Ligand_Substrate/Ligand_Complex_Stripped/OP0_4X69.pdb
     RDKit          3D

 26 26  0  0  1  0  0  0  0  0999 V2000
   48.7974   51.8765   46.3365 N   0  0  0  0  0  0  0  0  0  0  0  0
   47.4479   51.3813   46.5442 C   0  0  2  0  0  0  0  0  0  0  0  0
   47.4046   49.8862   46.4401 C   0  0  0  0  0  0  0  0  0  0  0  0
   46.4743   49.2680   46.9364 O   0  0  0  0  0  0  0  0  0  0  0  0
   46.5138   52.0025   45.5121 C   0  0  0  0  0  0  0  0  0  0  0  0
   46.1621   53.3356   45.8707 O   0  0  0  0  0  0  0  0  0  0  0  0
   45.2930   53.6267   46.9281 C   0  0  0  0  0  0  0  0  0  0  0  0
   44.7533   52.6848   47.5732 O   0  0  0  0  0  0  0  0  0  0  0  0
   44.9918   54.9931   47.2739 N   0  0  0  0  0  0  0  0  0  0  0  0
   45.7043   56.1302   46.6463 C   0  0  2  0  0  0  0  0  0  0  0  0
   47.1695   55.8690   46.4670 C   0  0  0  0  0  0  0  0  0  0  0  0
   47.7740   56.1178   45.1976 N   0  0  0  0  0  0  0  0  0  0  0  0
   47.8692   55.4629   47.4345 O   0  0  0  0  0  0  0  0  0  0  0  0
   43.6616   55.2215   47.8470 C   0  0  0  0  0  0  0  0  0  0  0  0
   43.6243   56.4940   48.6864 C   0  0  1  0  0  0  0  0  0  0  0  0
   44.1252   57.6727   47.8673 C   0  0  0  0  0  0  0  0  0  0  0  0
   45.5674   57.4124   47.4736 C   0  0  0  0  0  0  0  0  0  0  0  0
   42.2808   56.7428   49.2051 N   0  0  0  0  0  0  0  0  0  0  0  0
   39.9887   56.1426   48.6380 S   0  0  0  0  0  0  0  0  0  0  0  0
   41.4310   56.9137   48.1599 O   0  0  0  0  0  0  0  0  0  0  0  0
   38.8372   56.2945   47.3949 O   0  0  0  0  0  0  0  0  0  0  0  0
   40.2849   54.4910   48.9251 O   0  0  0  0  0  0  0  0  0  0  0  0
   39.3838   56.8731   50.0516 O   0  0  0  0  0  0  0  0  0  0  0  0
   50.5910   54.1962   44.2482 C   0  0  0  0  0  0  0  0  0  0  0  0
   49.1461   54.6236   44.3958 C   0  0  0  0  0  0  0  0  0  0  0  0
   49.0924   55.8874   44.9863 O   0  0  0  0  0  0  0  0  0  0  0  0
  2  1  1  6
  2  5  1  0
  3  2  1  0
  4  3  2  0
  5  6  1  0
  6  7  1  0
  7  8  2  0
  7  9  1  0
  9 10  1  0
  9 14  1  0
 10 11  1  1
 10 17  1  0
 11 12  1  0
 11 13  2  0
 12 26  1  0
 14 15  1  0
 15 16  1  0
 15 18  1  6
 16 17  1  0
 18 20  1  0
 19 20  1  0
 19 21  1  0
 19 22  1  0
 19 23  1  0
 24 25  1  0
 25 26  1  0
M  END
>  <HEADER>  (1) 
    HYDROLASE/HYDROLASE INHIBITOR           07-DEC-14   4X69              

>  <TITLE>  (1) 
    CRYSTAL STRUCTURE OF OP0595 COMPLEXED WITH CTX-M-44                   

>  <COMPND>  (1) 
    MOL_ID: 1;                                                            
   2 MOLECULE: BETA-LACTAMASE TOHO-1;                                     
   3 CHAIN: A, B;                                                         
   4 EC: 3.5.2.6;                                                         
   5 ENGINEERED: YES                                                      

>  <SOURCE>  (1) 
    MOL_ID: 1;                                                            
   2 ORGANISM_SCIENTIFIC: ESCHERICHIA COLI;                               
   3 ORGANISM_TAXID: 562;                                                 
   4 GENE: BLA;                                                           
   5 EXPRESSION_SYSTEM: ESCHERICHIA COLI BL21(DE3);                       
   6 EXPRESSION_SYSTEM_TAXID: 469008;                                     
   7 EXPRESSION_SYSTEM_STRAIN: BL21(DE3);                                 
   8 EXPRESSION_SYSTEM_VECTOR_TYPE: PLASMID;                              
   9 EXPRESSION_SYSTEM_PLASMID: PET28B                                    

>  <KEYWDS>  (1) 
    HYDROLASE-HYDROLASE INHIBITOR COMPLEX                                 

>  <EXPDTA>  (1) 
    X-RAY DIFFRACTION                                                     

>  <AUTHOR>  (1) 
    M.YAMADA,T.WATANABE                                                   

>  <REVDAT>  (1) 
   4   05-FEB-20 4X69    1       REMARK                                   
   3   14-OCT-15 4X69    1       JRNL                                     
   2   15-JUL-15 4X69    1       REMARK                                   
   1   01-JUL-15 4X69    0                                                

>  <JRNL>  (1) 
      AUTH   A.MORINAKA,Y.TSUTSUMI,M.YAMADA,K.SUZUKI,T.WATANABE,T.ABE,    
      AUTH 2 T.FURUUCHI,S.INAMURA,Y.SAKAMAKI,N.MITSUHASHI,T.IDA,          
      AUTH 3 D.M.LIVERMORE                                                
      TITL   OP0595, A NEW DIAZABICYCLOOCTANE: MODE OF ACTION AS A SERINE 
      TITL 2 BETA-LACTAMASE INHIBITOR, ANTIBIOTIC AND BETA-LACTAM         
      TITL 3 'ENHANCER'                                                   
      REF    J.ANTIMICROB.CHEMOTHER.       V.  70  2779 2015              
      REFN                   ESSN 1460-2091                               
      PMID   26089439                                                     
      DOI    10.1093/JAC/DKV166                                           

>  <REMARK>  (1) 
   2                                                                      
   2 RESOLUTION.    1.42 ANGSTROMS.                                       
   3                                                                      
   3 REFINEMENT.                                                          
   3   PROGRAM     : REFMAC REFMAC_5.5.0109                               
   3   AUTHORS     : MURSHUDOV,SKUBAK,LEBEDEV,PANNU,STEINER,              
   3               : NICHOLLS,WINN,LONG,VAGIN                             
   3                                                                      
   3  DATA USED IN REFINEMENT.                                            
   3   RESOLUTION RANGE HIGH (ANGSTROMS) : 1.42                           
   3   RESOLUTION RANGE LOW  (ANGSTROMS) : 50.00                          
   3   DATA CUTOFF            (SIGMA(F)) : 0.000                          
   3   COMPLETENESS FOR RANGE        (%) : 98.2                           
   3   NUMBER OF REFLECTIONS             : 77420                          
   3                                                                      
   3  FIT TO DATA USED IN REFINEMENT.                                     
   3   CROSS-VALIDATION METHOD          : THROUGHOUT                      
   3   FREE R VALUE TEST SET SELECTION  : RANDOM                          
   3   R VALUE     (WORKING + TEST SET) : 0.185                           
   3   R VALUE            (WORKING SET) : 0.184                           
   3   FREE R VALUE                     : 0.209                           
   3   FREE R VALUE TEST SET SIZE   (%) : 5.000                           
   3   FREE R VALUE TEST SET COUNT      : 4113                            
   3                                                                      
   3  NUMBER OF NON-HYDROGEN ATOMS USED IN REFINEMENT.                    
   3   PROTEIN ATOMS            : 3952                                    
   3   NUCLEIC ACID ATOMS       : 0                                       
   3   HETEROGEN ATOMS          : 48                                      
   3   SOLVENT ATOMS            : 368                                     
   3                                                                      
   3  B VALUES.                                                           
   3   FROM WILSON PLOT           (A**2) : NULL                           
   3   MEAN B VALUE      (OVERALL, A**2) : 12.37                          
   3   OVERALL ANISOTROPIC B VALUE.                                       
   3    B11 (A**2) : -0.25000                                             
   3    B22 (A**2) : -0.37000                                             
   3    B33 (A**2) : 0.69000                                              
   3    B12 (A**2) : 0.00000                                              
   3    B13 (A**2) : 0.10000                                              
   3    B23 (A**2) : 0.00000                                              
   3                                                                      
   3  ESTIMATED OVERALL COORDINATE ERROR.                                 
   3   ESU BASED ON R VALUE                            (A): 0.072         
   3   ESU BASED ON FREE R VALUE                       (A): 0.072         
   3   ESU BASED ON MAXIMUM LIKELIHOOD                 (A): 0.042         
   3   ESU FOR B VALUES BASED ON MAXIMUM LIKELIHOOD (A**2): 1.049         
   3                                                                      
   3  RMS DEVIATIONS FROM IDEAL VALUES.                                   
   3   DISTANCE RESTRAINTS.                    RMS    SIGMA               
   3    BOND LENGTH                     (A) : NULL  ; NULL                
   3    ANGLE DISTANCE                  (A) : NULL  ; NULL                
   3    INTRAPLANAR 1-4 DISTANCE        (A) : NULL  ; NULL                
   3    H-BOND OR METAL COORDINATION    (A) : NULL  ; NULL                
   3                                                                      
   3   PLANE RESTRAINT                  (A) : NULL  ; NULL                
   3   CHIRAL-CENTER RESTRAINT       (A**3) : NULL  ; NULL                
   3                                                                      
   3   NON-BONDED CONTACT RESTRAINTS.                                     
   3    SINGLE TORSION                  (A) : NULL  ; NULL                
   3    MULTIPLE TORSION                (A) : NULL  ; NULL                
   3    H-BOND (X...Y)                  (A) : NULL  ; NULL                
   3    H-BOND (X-H...Y)                (A) : NULL  ; NULL                
   3                                                                      
   3   CONFORMATIONAL TORSION ANGLE RESTRAINTS.                           
   3    SPECIFIED                 (DEGREES) : NULL  ; NULL                
   3    PLANAR                    (DEGREES) : NULL  ; NULL                
   3    STAGGERED                 (DEGREES) : NULL  ; NULL                
   3    TRANSVERSE                (DEGREES) : NULL  ; NULL                
   3                                                                      
   3  ISOTROPIC THERMAL FACTOR RESTRAINTS.    RMS    SIGMA                
   3   MAIN-CHAIN BOND              (A**2) : NULL  ; NULL                 
   3   MAIN-CHAIN ANGLE             (A**2) : NULL  ; NULL                 
   3   SIDE-CHAIN BOND              (A**2) : NULL  ; NULL                 
   3   SIDE-CHAIN ANGLE             (A**2) : NULL  ; NULL                 
   3                                                                      
   3  OTHER REFINEMENT REMARKS: HYDROGENS HAVE BEEN ADDED IN THE RIDING   
   3  POSITIONS U VALUES : REFINED INDIVIDUALLY                           
   4                                                                      
   4 4X69 COMPLIES WITH FORMAT V. 3.30, 13-JUL-11                         
 100                                                                      
 100 THIS ENTRY HAS BEEN PROCESSED BY PDBJ ON 09-DEC-14.                  
 100 THE DEPOSITION ID IS D_1000205007.                                   
 200                                                                      
 200 EXPERIMENTAL DETAILS                                                 
 200  EXPERIMENT TYPE                : X-RAY DIFFRACTION                  
 200  DATE OF DATA COLLECTION        : 21-FEB-13                          
 200  TEMPERATURE           (KELVIN) : 95                                 
 200  PH                             : 8.0                                
 200  NUMBER OF CRYSTALS USED        : 1                                  
 200                                                                      
 200  SYNCHROTRON              (Y/N) : Y                                  
 200  RADIATION SOURCE               : PHOTON FACTORY                     
 200  BEAMLINE                       : AR-NW12A                           
 200  X-RAY GENERATOR MODEL          : NULL                               
 200  MONOCHROMATIC OR LAUE    (M/L) : M                                  
 200  WAVELENGTH OR RANGE        (A) : 1.0                                
 200  MONOCHROMATOR                  : NULL                               
 200  OPTICS                         : NULL                               
 200                                                                      
 200  DETECTOR TYPE                  : CCD                                
 200  DETECTOR MANUFACTURER          : ADSC QUANTUM 210                   
 200  INTENSITY-INTEGRATION SOFTWARE : HKL-2000                           
 200  DATA SCALING SOFTWARE          : HKL-2000                           
 200                                                                      
 200  NUMBER OF UNIQUE REFLECTIONS   : 81658                              
 200  RESOLUTION RANGE HIGH      (A) : 1.420                              
 200  RESOLUTION RANGE LOW       (A) : 50.000                             
 200  REJECTION CRITERIA  (SIGMA(I)) : -3.000                             
 200                                                                      
 200 OVERALL.                                                             
 200  COMPLETENESS FOR RANGE     (%) : 98.1                               
 200  DATA REDUNDANCY                : 3.600                              
 200  R MERGE                    (I) : 0.07000                            
 200  R SYM                      (I) : 0.07000                            
 200  <I/SIGMA(I)> FOR THE DATA SET  : 24.1950                            
 200                                                                      
 200 IN THE HIGHEST RESOLUTION SHELL.                                     
 200  HIGHEST RESOLUTION SHELL, RANGE HIGH (A) : 1.42                     
 200  HIGHEST RESOLUTION SHELL, RANGE LOW  (A) : 1.44                     
 200  COMPLETENESS FOR SHELL     (%) : 80.5                               
 200  DATA REDUNDANCY IN SHELL       : 2.40                               
 200  R MERGE FOR SHELL          (I) : 0.45500                            
 200  R SYM FOR SHELL            (I) : 0.45500                            
 200  <I/SIGMA(I)> FOR SHELL         : 2.173                              
 200                                                                      
 200 DIFFRACTION PROTOCOL: SINGLE WAVELENGTH                              
 200 METHOD USED TO DETERMINE THE STRUCTURE: MOLECULAR REPLACEMENT        
 200 SOFTWARE USED: MOLREP                                                
 200 STARTING MODEL: 1IYS                                                 
 200                                                                      
 200 REMARK: NULL                                                         
 280                                                                      
 280 CRYSTAL                                                              
 280 SOLVENT CONTENT, VS   (%): 37.88                                     
 280 MATTHEWS COEFFICIENT, VM (ANGSTROMS**3/DA): 1.98                     
 280                                                                      
 280 CRYSTALLIZATION CONDITIONS: PEG 6000, PH 8.0, VAPOR DIFFUSION,       
 280  TEMPERATURE 293K                                                    
 290                                                                      
 290 CRYSTALLOGRAPHIC SYMMETRY                                            
 290 SYMMETRY OPERATORS FOR SPACE GROUP: P 1 21 1                         
 290                                                                      
 290      SYMOP   SYMMETRY                                                
 290     NNNMMM   OPERATOR                                                
 290       1555   X,Y,Z                                                   
 290       2555   -X,Y+1/2,-Z                                             
 290                                                                      
 290     WHERE NNN -> OPERATOR NUMBER                                     
 290           MMM -> TRANSLATION VECTOR                                  
 290                                                                      
 290 CRYSTALLOGRAPHIC SYMMETRY TRANSFORMATIONS                            
 290 THE FOLLOWING TRANSFORMATIONS OPERATE ON THE ATOM/HETATM             
 290 RECORDS IN THIS ENTRY TO PRODUCE CRYSTALLOGRAPHICALLY                
 290 RELATED MOLECULES.                                                   
 290   SMTRY1   1  1.000000  0.000000  0.000000        0.00000            
 290   SMTRY2   1  0.000000  1.000000  0.000000        0.00000            
 290   SMTRY3   1  0.000000  0.000000  1.000000        0.00000            
 290   SMTRY1   2 -1.000000  0.000000  0.000000        0.00000            
 290   SMTRY2   2  0.000000  1.000000  0.000000       36.49100            
 290   SMTRY3   2  0.000000  0.000000 -1.000000        0.00000            
 290                                                                      
 290 REMARK: NULL                                                         
 300                                                                      
 300 BIOMOLECULE: 1, 2                                                    
 300 SEE REMARK 350 FOR THE AUTHOR PROVIDED AND/OR PROGRAM                
 300 GENERATED ASSEMBLY INFORMATION FOR THE STRUCTURE IN                  
 300 THIS ENTRY. THE REMARK MAY ALSO PROVIDE INFORMATION ON               
 300 BURIED SURFACE AREA.                                                 
 350                                                                      
 350 COORDINATES FOR A COMPLETE MULTIMER REPRESENTING THE KNOWN           
 350 BIOLOGICALLY SIGNIFICANT OLIGOMERIZATION STATE OF THE                
 350 MOLECULE CAN BE GENERATED BY APPLYING BIOMT TRANSFORMATIONS          
 350 GIVEN BELOW.  BOTH NON-CRYSTALLOGRAPHIC AND                          
 350 CRYSTALLOGRAPHIC OPERATIONS ARE GIVEN.                               
 350                                                                      
 350 BIOMOLECULE: 1                                                       
 350 AUTHOR DETERMINED BIOLOGICAL UNIT: MONOMERIC                         
 350 SOFTWARE DETERMINED QUATERNARY STRUCTURE: MONOMERIC                  
 350 SOFTWARE USED: PISA                                                  
 350 TOTAL BURIED SURFACE AREA: 250 ANGSTROM**2                           
 350 SURFACE AREA OF THE COMPLEX: 10850 ANGSTROM**2                       
 350 CHANGE IN SOLVENT FREE ENERGY: 3.0 KCAL/MOL                          
 350 APPLY THE FOLLOWING TO CHAINS: A                                     
 350   BIOMT1   1  1.000000  0.000000  0.000000        0.00000            
 350   BIOMT2   1  0.000000  1.000000  0.000000        0.00000            
 350   BIOMT3   1  0.000000  0.000000  1.000000        0.00000            
 350                                                                      
 350 BIOMOLECULE: 2                                                       
 350 AUTHOR DETERMINED BIOLOGICAL UNIT: MONOMERIC                         
 350 SOFTWARE DETERMINED QUATERNARY STRUCTURE: MONOMERIC                  
 350 SOFTWARE USED: PISA                                                  
 350 TOTAL BURIED SURFACE AREA: 250 ANGSTROM**2                           
 350 SURFACE AREA OF THE COMPLEX: 10760 ANGSTROM**2                       
 350 CHANGE IN SOLVENT FREE ENERGY: 3.0 KCAL/MOL                          
 350 APPLY THE FOLLOWING TO CHAINS: B                                     
 350   BIOMT1   1  1.000000  0.000000  0.000000        0.00000            
 350   BIOMT2   1  0.000000  1.000000  0.000000        0.00000            
 350   BIOMT3   1  0.000000  0.000000  1.000000        0.00000            
 465                                                                      
 465 MISSING RESIDUES                                                     
 465 THE FOLLOWING RESIDUES WERE NOT LOCATED IN THE                       
 465 EXPERIMENT. (M=MODEL NUMBER; RES=RESIDUE NAME; C=CHAIN               
 465 IDENTIFIER; SSSEQ=SEQUENCE NUMBER; I=INSERTION CODE.)                
 465                                                                      
 465   M RES C SSSEQI                                                     
 465     GLY A    26                                                      
 465     GLY B    26                                                      
 470                                                                      
 470 MISSING ATOM                                                         
 470 THE FOLLOWING RESIDUES HAVE MISSING ATOMS (M=MODEL NUMBER;           
 470 RES=RESIDUE NAME; C=CHAIN IDENTIFIER; SSEQ=SEQUENCE NUMBER;          
 470 I=INSERTION CODE):                                                   
 470   M RES CSSEQI  ATOMS                                                
 470     LYS A 227    CD   CE   NZ                                        
 470     LYS B  99    CD   CE   NZ                                        
 500                                                                      
 500 GEOMETRY AND STEREOCHEMISTRY                                         
 500 SUBTOPIC: TORSION ANGLES                                             
 500                                                                      
 500 TORSION ANGLES OUTSIDE THE EXPECTED RAMACHANDRAN REGIONS:            
 500 (M=MODEL NUMBER; RES=RESIDUE NAME; C=CHAIN IDENTIFIER;               
 500 SSEQ=SEQUENCE NUMBER; I=INSERTION CODE).                             
 500                                                                      
 500 STANDARD TABLE:                                                      
 500 FORMAT:(10X,I3,1X,A3,1X,A1,I4,A1,4X,F7.2,3X,F7.2)                    
 500                                                                      
 500 EXPECTED VALUES: GJ KLEYWEGT AND TA JONES (1996). PHI/PSI-           
 500 CHOLOGY: RAMACHANDRAN REVISITED. STRUCTURE 4, 1395 - 1400            
 500                                                                      
 500  M RES CSSEQI        PSI       PHI                                   
 500    CYS A  69     -134.73     49.42                                   
 500    VAL A 103     -132.60   -114.47                                   
 500    SER A 220     -124.24   -104.67                                   
 500    ASN B  54       18.96     56.93                                   
 500    CYS B  69     -135.34     50.29                                   
 500    VAL B 103     -131.87   -113.83                                   
 500    ASN B 106       54.64   -140.20                                   
 500    SER B 220     -127.23   -103.41                                   
 500                                                                      
 500 REMARK: NULL                                                         
 610                                                                      
 610 MISSING HETEROATOM                                                   
 610 THE FOLLOWING RESIDUES HAVE MISSING ATOMS (M=MODEL NUMBER;           
 610 RES=RESIDUE NAME; C=CHAIN IDENTIFIER; SSEQ=SEQUENCE NUMBER;          
 610 I=INSERTION CODE):                                                   
 610   M RES C SSEQI                                                      
 610     OP0 A  301                                                       
 610     OP0 B  301                                                       
 800                                                                      
 800 SITE                                                                 
 800 SITE_IDENTIFIER: AC1                                                 
 800 EVIDENCE_CODE: SOFTWARE                                              
 800 SITE_DESCRIPTION: binding site for residue OP0 A 301                 
 800                                                                      
 800 SITE_IDENTIFIER: AC2                                                 
 800 EVIDENCE_CODE: SOFTWARE                                              
 800 SITE_DESCRIPTION: binding site for residue EDO A 302                 
 800                                                                      
 800 SITE_IDENTIFIER: AC3                                                 
 800 EVIDENCE_CODE: SOFTWARE                                              
 800 SITE_DESCRIPTION: binding site for residue EDO B 302                 
 800                                                                      
 800 SITE_IDENTIFIER: AC4                                                 
 800 EVIDENCE_CODE: SOFTWARE                                              
 800 SITE_DESCRIPTION: binding site for Di-peptide OP0 B 301 and SER B    
 800  70                                                                  
 900                                                                      
 900 RELATED ENTRIES                                                      
 900 RELATED ID: 4X68   RELATED DB: PDB                                   

>  <DBREF>  (1) 
 4X69 A   26   290  UNP    Q47066   BLT1_ECOLX      30    291             
 4X69 B   26   290  UNP    Q47066   BLT1_ECOLX      30    291             

>  <SEQADV>  (1) 
 4X69 GLY A   26  UNP  Q47066    ALA    30 ENGINEERED MUTATION            
 4X69 GLY B   26  UNP  Q47066    ALA    30 ENGINEERED MUTATION            

>  <SEQRES>  (1) 
   1 A  262  GLY ASN SER VAL GLN GLN GLN LEU GLU ALA LEU GLU LYS          
   2 A  262  SER SER GLY GLY ARG LEU GLY VAL ALA LEU ILE ASN THR          
   3 A  262  ALA ASP ASN SER GLN ILE LEU TYR ARG ALA ASP GLU ARG          
   4 A  262  PHE ALA MET CYS SER THR SER LYS VAL MET ALA ALA ALA          
   5 A  262  ALA VAL LEU LYS GLN SER GLU SER ASP LYS HIS LEU LEU          
   6 A  262  ASN GLN ARG VAL GLU ILE LYS LYS SER ASP LEU VAL ASN          
   7 A  262  TYR ASN PRO ILE ALA GLU LYS HIS VAL ASN GLY THR MET          
   8 A  262  THR LEU ALA GLU LEU GLY ALA ALA ALA LEU GLN TYR SER          
   9 A  262  ASP ASN THR ALA MET ASN LYS LEU ILE ALA HIS LEU GLY          
  10 A  262  GLY PRO ASP LYS VAL THR ALA PHE ALA ARG SER LEU GLY          
  11 A  262  ASP GLU THR PHE ARG LEU ASP ARG THR GLU PRO THR LEU          
  12 A  262  ASN THR ALA ILE PRO GLY ASP PRO ARG ASP THR THR THR          
  13 A  262  PRO LEU ALA MET ALA GLN THR LEU LYS ASN LEU THR LEU          
  14 A  262  GLY LYS ALA LEU ALA GLU THR GLN ARG ALA GLN LEU VAL          
  15 A  262  THR TRP LEU LYS GLY ASN THR THR GLY SER ALA SER ILE          
  16 A  262  ARG ALA GLY LEU PRO LYS SER TRP VAL VAL GLY ASP LYS          
  17 A  262  THR GLY SER GLY ASP TYR GLY THR THR ASN ASP ILE ALA          
  18 A  262  VAL ILE TRP PRO GLU ASN HIS ALA PRO LEU VAL LEU VAL          
  19 A  262  THR TYR PHE THR GLN PRO GLU GLN LYS ALA GLU ARG ARG          
  20 A  262  ARG ASP ILE LEU ALA ALA ALA ALA LYS ILE VAL THR HIS          
  21 A  262  GLY PHE                                                      
   1 B  262  GLY ASN SER VAL GLN GLN GLN LEU GLU ALA LEU GLU LYS          
   2 B  262  SER SER GLY GLY ARG LEU GLY VAL ALA LEU ILE ASN THR          
   3 B  262  ALA ASP ASN SER GLN ILE LEU TYR ARG ALA ASP GLU ARG          
   4 B  262  PHE ALA MET CYS SER THR SER LYS VAL MET ALA ALA ALA          
   5 B  262  ALA VAL LEU LYS GLN SER GLU SER ASP LYS HIS LEU LEU          
   6 B  262  ASN GLN ARG VAL GLU ILE LYS LYS SER ASP LEU VAL ASN          
   7 B  262  TYR ASN PRO ILE ALA GLU LYS HIS VAL ASN GLY THR MET          
   8 B  262  THR LEU ALA GLU LEU GLY ALA ALA ALA LEU GLN TYR SER          
   9 B  262  ASP ASN THR ALA MET ASN LYS LEU ILE ALA HIS LEU GLY          
  10 B  262  GLY PRO ASP LYS VAL THR ALA PHE ALA ARG SER LEU GLY          
  11 B  262  ASP GLU THR PHE ARG LEU ASP ARG THR GLU PRO THR LEU          
  12 B  262  ASN THR ALA ILE PRO GLY ASP PRO ARG ASP THR THR THR          
  13 B  262  PRO LEU ALA MET ALA GLN THR LEU LYS ASN LEU THR LEU          
  14 B  262  GLY LYS ALA LEU ALA GLU THR GLN ARG ALA GLN LEU VAL          
  15 B  262  THR TRP LEU LYS GLY ASN THR THR GLY SER ALA SER ILE          
  16 B  262  ARG ALA GLY LEU PRO LYS SER TRP VAL VAL GLY ASP LYS          
  17 B  262  THR GLY SER GLY ASP TYR GLY THR THR ASN ASP ILE ALA          
  18 B  262  VAL ILE TRP PRO GLU ASN HIS ALA PRO LEU VAL LEU VAL          
  19 B  262  THR TYR PHE THR GLN PRO GLU GLN LYS ALA GLU ARG ARG          
  20 B  262  ARG ASP ILE LEU ALA ALA ALA ALA LYS ILE VAL THR HIS          
  21 B  262  GLY PHE                                                      

>  <HET>  (1) 
 OP0  A 301      20                                                       
 EDO  A 302       4                                                       
 OP0  B 301      20                                                       
 EDO  B 302       4                                                       

>  <HETNAM>  (1) 
     OP0 (2S,5R)-N-(2-AMINOETHOXY)-1-FORMYL-5-[(SULFOOXY)                 
   2 OP0  AMINO]PIPERIDINE-2-CARBOXAMIDE                                  
     EDO 1,2-ETHANEDIOL                                                   

>  <HETSYN>  (1) 
     EDO ETHYLENE GLYCOL                                                  

>  <FORMUL>  (1) 
   3  OP0    2(C9 H18 N4 O7 S)                                            
   4  EDO    2(C2 H6 O2)                                                  
   7  HOH   *368(H2 O)                                                    

>  <HELIX>  (1) 
   1 AA1 ASN A   27  GLY A   41  1                                  15    
   2 AA2 CYS A   69  THR A   71  5                                   3    
   3 AA3 SER A   72  GLU A   85  1                                  14    
   4 AA4 HIS A   89  ASN A   92  5                                   4    
   5 AA5 LYS A   98  LEU A  102  5                                   5    
   6 AA6 ILE A  108  HIS A  112  5                                   5    
   7 AA7 LEU A  119  TYR A  129  1                                  11    
   8 AA8 ASP A  131  GLY A  143  1                                  13    
   9 AA9 GLY A  144  LEU A  155  1                                  12    
  10 AB1 PRO A  167  THR A  171  5                                   5    
  11 AB2 THR A  182  LEU A  195  1                                  14    
  12 AB3 ALA A  200  GLY A  213  1                                  14    
  13 AB4 SER A  220  LEU A  225  5                                   6    
  14 AB5 ARG A  275  THR A  287  1                                  13    
  15 AB6 SER B   28  SER B   40  1                                  13    
  16 AB7 CYS B   69  THR B   71  5                                   3    
  17 AB8 SER B   72  GLU B   85  1                                  14    
  18 AB9 HIS B   89  ASN B   92  5                                   4    
  19 AC1 LYS B   98  LEU B  102  5                                   5    
  20 AC2 ILE B  108  VAL B  113  5                                   6    
  21 AC3 LEU B  119  TYR B  129  1                                  11    
  22 AC4 ASP B  131  GLY B  143  1                                  13    
  23 AC5 GLY B  144  LEU B  155  1                                  12    
  24 AC6 PRO B  167  THR B  171  5                                   5    
  25 AC7 THR B  182  LEU B  195  1                                  14    
  26 AC8 ALA B  200  GLY B  213  1                                  14    
  27 AC9 SER B  220  LEU B  225  5                                   6    
  28 AD1 ARG B  275  HIS B  288  1                                  14    

>  <SHEET>  (1) 
   1 AA1 5 GLN A  56  TYR A  60  0                                        
   2 AA1 5 ARG A  43  ASN A  50 -1  N  VAL A  46   O  TYR A  60           
   3 AA1 5 LEU A 259  THR A 266 -1  O  TYR A 264   N  GLY A  45           
   4 AA1 5 THR A 243  TRP A 251 -1  N  THR A 244   O  PHE A 265           
   5 AA1 5 VAL A 230  GLY A 238 -1  N  VAL A 230   O  TRP A 251           
   1 AA2 2 PHE A  66  ALA A  67  0                                        
   2 AA2 2 THR A 180  THR A 181 -1  O  THR A 181   N  PHE A  66           
   1 AA3 2 ARG A  94  ILE A  97  0                                        
   2 AA3 2 GLY A 115  THR A 118 -1  O  GLY A 115   N  ILE A  97           
   1 AA4 5 GLN B  56  TYR B  60  0                                        
   2 AA4 5 ARG B  43  ASN B  50 -1  N  VAL B  46   O  TYR B  60           
   3 AA4 5 LEU B 259  THR B 266 -1  O  TYR B 264   N  GLY B  45           
   4 AA4 5 THR B 243  TRP B 251 -1  N  ALA B 248   O  LEU B 261           
   5 AA4 5 VAL B 230  GLY B 238 -1  N  VAL B 230   O  TRP B 251           
   1 AA5 2 PHE B  66  ALA B  67  0                                        
   2 AA5 2 THR B 180  THR B 181 -1  O  THR B 181   N  PHE B  66           
   1 AA6 2 ARG B  94  GLU B  96  0                                        
   2 AA6 2 THR B 116  THR B 118 -1  O  MET B 117   N  VAL B  95           

>  <LINK>  (1) 
       OG  SER A  70                 C1  OP0 A 301     1555   1555  1.36  
       OG  SER B  70                 C1  OP0 B 301     1555   1555  1.36  

>  <CISPEP>  (1) 
   1 GLU A  166    PRO A  167          0         6.15                     
   2 GLU B  166    PRO B  167          0         3.50                     

>  <SITE>  (1) 
   1 AC1 14 CYS A  69  SER A  70  ASN A 104  SER A 130                    
   2 AC1 14 ASN A 132  ASN A 170  THR A 216  LYS A 234                    
   3 AC1 14 THR A 235  GLY A 236  SER A 237  ASP A 240                    
   4 AC1 14 HOH A 404  HOH A 520                                          
   1 AC2  6 ALA A 172  ILE A 173  GLY A 175  ASP A 176                    
   2 AC2  6 HOH A 417  HOH A 438                                          
   1 AC3  8 ARG B  65  ALA B  67  ALA B 172  ILE B 173                    
   2 AC3  8 GLY B 175  ASP B 176  HOH B 401  HOH B 418                    
   1 AC4 17 MET B  68  CYS B  69  THR B  71  SER B  72                    
   2 AC4 17 LYS B  73  ASN B 104  SER B 130  ASN B 132                    
   3 AC4 17 ASN B 170  THR B 216  LYS B 234  THR B 235                    
   4 AC4 17 GLY B 236  SER B 237  ASP B 240  HOH B 411                    
   5 AC4 17 HOH B 484                                                     

>  <ORIGX1>  (1) 
      1.000000  0.000000  0.000000        0.00000                         

>  <ORIGX2>  (1) 
      0.000000  1.000000  0.000000        0.00000                         

>  <ORIGX3>  (1) 
      0.000000  0.000000  1.000000        0.00000                         

>  <SCALE1>  (1) 
      0.019405  0.000000  0.006793        0.00000                         

>  <SCALE2>  (1) 
      0.000000  0.013702  0.000000        0.00000                         

>  <SCALE3>  (1) 
      0.000000  0.000000  0.016804        0.00000                         

>  <MASTER>  (1) 
      269    0    4   28   18    0   13    6 4368    2   50   42          

$$$$
