start_structures/Ligand_Substrate/Ligand_Complex_Stripped/ALP_1TEM.pdb
     RDKit          3D

 21 21  0  0  1  0  0  0  0  0999 V2000
   48.7940   51.8798   46.3354 N   0  0  0  0  0  0  0  0  0  0  0  0
   47.4442   51.3838   46.5434 C   0  0  2  0  0  0  0  0  0  0  0  0
   47.4039   49.8881   46.4407 C   0  0  0  0  0  0  0  0  0  0  0  0
   46.4744   49.2681   46.9364 O   0  0  0  0  0  0  0  0  0  0  0  0
   46.5142   52.0002   45.5090 C   0  0  0  0  0  0  0  0  0  0  0  0
   46.1693   53.3300   45.8752 O   0  0  0  0  0  0  0  0  0  0  0  0
   45.3875   54.1406   45.0531 C   0  0  0  0  0  0  0  0  0  0  0  0
   44.9495   53.7055   43.9518 O   0  0  0  0  0  0  0  0  0  0  0  0
   45.1307   55.5602   45.4665 C   0  0  2  0  0  0  0  0  0  0  0  0
   43.7117   55.9940   45.1227 C   0  0  0  0  0  0  0  0  0  0  0  0
   43.4024   57.1827   45.7843 O   0  0  0  0  0  0  0  0  0  0  0  0
   46.1694   56.5421   44.9068 C   0  0  1  0  0  0  0  0  0  0  0  0
   47.8117   56.2809   45.6647 S   0  0  0  0  0  0  0  0  0  0  0  0
   48.5670   56.0771   44.0385 C   0  0  0  0  0  0  0  0  0  0  0  0
   49.5883   54.9578   44.0941 C   0  0  0  0  0  0  0  0  0  0  0  0
   49.2531   57.3805   43.6539 C   0  0  0  0  0  0  0  0  0  0  0  0
   47.4260   55.7086   43.0993 C   0  0  2  0  0  0  0  0  0  0  0  0
   47.7483   55.8208   41.6383 C   0  0  0  0  0  0  0  0  0  0  0  0
   47.6499   56.9255   41.0409 O   0  0  0  0  0  0  0  0  0  0  0  0
   48.1929   54.7023   40.9468 O   0  0  0  0  0  0  0  0  0  0  0  0
   46.2480   56.4894   43.4467 N   0  0  0  0  0  0  0  0  0  0  0  0
  2  1  1  6
  2  5  1  0
  3  4  2  0
  3  2  1  0
  5  6  1  0
  6  7  1  0
  7  8  2  0
  7  9  1  0
  9 10  1  6
 10 11  1  0
 12  9  1  0
 12 13  1  0
 12 21  1  6
 13 14  1  0
 14 15  1  0
 14 16  1  0
 14 17  1  0
 17 18  1  6
 17 21  1  0
 18 19  2  0
 18 20  1  0
M  END
>  <HEADER>  (1) 
    HYDROLASE                               28-MAY-96   1TEM              

>  <TITLE>  (1) 
    6 ALPHA HYDROXYMETHYL PENICILLOIC ACID ACYLATED ON THE TEM-           
   2 1 BETA-LACTAMASE FROM ESCHERICHIA COLI                               

>  <COMPND>  (1) 
    MOL_ID: 1;                                                            
   2 MOLECULE: TEM-1 BETA LACTAMASE;                                      
   3 CHAIN: A;                                                            
   4 EC: 3.5.2.6;                                                         
   5 ENGINEERED: YES;                                                     
   6 OTHER_DETAILS: VARIANT V84I, A184V,ACYL-ENZYME COMPLEX               

>  <SOURCE>  (1) 
    MOL_ID: 1;                                                            
   2 ORGANISM_SCIENTIFIC: ESCHERICHIA COLI;                               
   3 ORGANISM_TAXID: 562;                                                 
   4 EXPRESSION_SYSTEM: ESCHERICHIA COLI;                                 
   5 EXPRESSION_SYSTEM_TAXID: 562;                                        
   6 EXPRESSION_SYSTEM_VECTOR_TYPE: PLASMID;                              
   7 EXPRESSION_SYSTEM_PLASMID: PBR322                                    

>  <KEYWDS>  (1) 
    HYDROLASE, ANTIBIOTIC RESISTANCE, TRANSPOSABLE ELEMENT                

>  <EXPDTA>  (1) 
    X-RAY DIFFRACTION                                                     

>  <AUTHOR>  (1) 
    L.MAVEYRAUD,I.MASSOVA,J.P.SAMAMA,S.MOBASHERY                          

>  <REVDAT>  (1) 
   2   24-FEB-09 1TEM    1       VERSN                                    
   1   15-MAY-97 1TEM    0                                                

>  <JRNL>  (1) 
      AUTH   L.MAVEYRAUD,I.MASSOVA,C.BIRCK,K.MIYASHITA,                   
      AUTH 2 J.P.SAMAMA,S.MOBASHERY                                       
      TITL   CRYSTAL STRUCTURE OF                                         
      TITL 2 6ALPHA-HYDROXYMETHYLPENICILLANATE COMPLEXED TO THE           
      TITL 3 TEM-1 BETA-LACTAMASE FROM ESCHERICHIA COLI:                  
      TITL 4 EVIDENCE ON THE MECHANISM OF ACTION OF A NOVEL               
      TITL 5 INHIBITOR DESIGNED BY A COMPUTER-AIDED PROCESS               
      REF    J.AM.CHEM.SOC.                V. 118  7435 1996              
      REFN                   ISSN 0002-7863                               

>  <REMARK>  (1) 
   1                                                                      
   1 REFERENCE 1                                                          
   1  AUTH   K.MIYASHITA,I.MASSOVA,P.TAIBI,S.MOBASHERY                    
   1  TITL   DESIGN, SYNTHESIS, AND EVALUATION OF A POTENT                
   1  TITL 2 MECHANISM-BASED INHIBITOR FOR THE TEM                        
   1  TITL 3 BETA-LACTAMASE WITH IMPLICATIONS FOR THE ENZYME              
   1  TITL 4 MECHANISM                                                    
   1  REF    J.AM.CHEM.SOC.                V. 117 11055 1995              
   1  REFN                   ISSN 0002-7863                               
   2                                                                      
   2 RESOLUTION.    1.95 ANGSTROMS.                                       
   3                                                                      
   3 REFINEMENT.                                                          
   3   PROGRAM     : X-PLOR 3.1                                           
   3   AUTHORS     : BRUNGER                                              
   3                                                                      
   3  DATA USED IN REFINEMENT.                                            
   3   RESOLUTION RANGE HIGH (ANGSTROMS) : 1.95                           
   3   RESOLUTION RANGE LOW  (ANGSTROMS) : 8.00                           
   3   DATA CUTOFF            (SIGMA(F)) : 0.000                          
   3   DATA CUTOFF HIGH         (ABS(F)) : NULL                           
   3   DATA CUTOFF LOW          (ABS(F)) : NULL                           
   3   COMPLETENESS (WORKING+TEST)   (%) : NULL                           
   3   NUMBER OF REFLECTIONS             : 16853                          
   3                                                                      
   3  FIT TO DATA USED IN REFINEMENT.                                     
   3   CROSS-VALIDATION METHOD          : NULL                            
   3   FREE R VALUE TEST SET SELECTION  : NULL                            
   3   R VALUE            (WORKING SET) : 0.156                           
   3   FREE R VALUE                     : 0.202                           
   3   FREE R VALUE TEST SET SIZE   (%) : 10.000                          
   3   FREE R VALUE TEST SET COUNT      : NULL                            
   3   ESTIMATED ERROR OF FREE R VALUE  : NULL                            
   3                                                                      
   3  FIT IN THE HIGHEST RESOLUTION BIN.                                  
   3   TOTAL NUMBER OF BINS USED           : NULL                         
   3   BIN RESOLUTION RANGE HIGH       (A) : 1.95                         
   3   BIN RESOLUTION RANGE LOW        (A) : 1.98                         
   3   BIN COMPLETENESS (WORKING+TEST) (%) : NULL                         
   3   REFLECTIONS IN BIN    (WORKING SET) : 636                          
   3   BIN R VALUE           (WORKING SET) : 0.1830                       
   3   BIN FREE R VALUE                    : 0.2420                       
   3   BIN FREE R VALUE TEST SET SIZE  (%) : 10.00                        
   3   BIN FREE R VALUE TEST SET COUNT     : NULL                         
   3   ESTIMATED ERROR OF BIN FREE R VALUE : NULL                         
   3                                                                      
   3  NUMBER OF NON-HYDROGEN ATOMS USED IN REFINEMENT.                    
   3   PROTEIN ATOMS            : 2037                                    
   3   NUCLEIC ACID ATOMS       : 0                                       
   3   HETEROGEN ATOMS          : 15                                      
   3   SOLVENT ATOMS            : 234                                     
   3                                                                      
   3  B VALUES.                                                           
   3   FROM WILSON PLOT           (A**2) : 12.49                          
   3   MEAN B VALUE      (OVERALL, A**2) : 12.35                          
   3   OVERALL ANISOTROPIC B VALUE.                                       
   3    B11 (A**2) : NULL                                                 
   3    B22 (A**2) : NULL                                                 
   3    B33 (A**2) : NULL                                                 
   3    B12 (A**2) : NULL                                                 
   3    B13 (A**2) : NULL                                                 
   3    B23 (A**2) : NULL                                                 
   3                                                                      
   3  ESTIMATED COORDINATE ERROR.                                         
   3   ESD FROM LUZZATI PLOT        (A) : NULL                            
   3   ESD FROM SIGMAA              (A) : 0.11                            
   3   LOW RESOLUTION CUTOFF        (A) : 8.00                            
   3                                                                      
   3  CROSS-VALIDATED ESTIMATED COORDINATE ERROR.                         
   3   ESD FROM C-V LUZZATI PLOT    (A) : NULL                            
   3   ESD FROM C-V SIGMAA          (A) : NULL                            
   3                                                                      
   3  RMS DEVIATIONS FROM IDEAL VALUES.                                   
   3   BOND LENGTHS                 (A) : 0.005                           
   3   BOND ANGLES            (DEGREES) : 1.27                            
   3   DIHEDRAL ANGLES        (DEGREES) : NULL                            
   3   IMPROPER ANGLES        (DEGREES) : NULL                            
   3                                                                      
   3  ISOTROPIC THERMAL MODEL : NULL                                      
   3                                                                      
   3  ISOTROPIC THERMAL FACTOR RESTRAINTS.    RMS    SIGMA                
   3   MAIN-CHAIN BOND              (A**2) : NULL  ; NULL                 
   3   MAIN-CHAIN ANGLE             (A**2) : NULL  ; NULL                 
   3   SIDE-CHAIN BOND              (A**2) : NULL  ; NULL                 
   3   SIDE-CHAIN ANGLE             (A**2) : NULL  ; NULL                 
   3                                                                      
   3  NCS MODEL : NULL                                                    
   3                                                                      
   3  NCS RESTRAINTS.                         RMS   SIGMA/WEIGHT          
   3   GROUP  1  POSITIONAL            (A) : NULL  ; NULL                 
   3   GROUP  1  B-FACTOR           (A**2) : NULL  ; NULL                 
   3                                                                      
   3  PARAMETER FILE  1  : NULL                                           
   3  TOPOLOGY FILE  1   : NULL                                           
   3                                                                      
   3  OTHER REFINEMENT REMARKS: NULL                                      
   4                                                                      
   4 1TEM COMPLIES WITH FORMAT V. 3.15, 01-DEC-08                         
 100                                                                      
 100 THIS ENTRY HAS BEEN PROCESSED BY BNL.                                
 200                                                                      
 200 EXPERIMENTAL DETAILS                                                 
 200  EXPERIMENT TYPE                : X-RAY DIFFRACTION                  
 200  DATE OF DATA COLLECTION        : 15-DEC-95                          
 200  TEMPERATURE           (KELVIN) : 263                                
 200  PH                             : 7.8                                
 200  NUMBER OF CRYSTALS USED        : 1                                  
 200                                                                      
 200  SYNCHROTRON              (Y/N) : Y                                  
 200  RADIATION SOURCE               : EMBL/DESY, HAMBURG                 
 200  BEAMLINE                       : X31                                
 200  X-RAY GENERATOR MODEL          : NULL                               
 200  MONOCHROMATIC OR LAUE    (M/L) : M                                  
 200  WAVELENGTH OR RANGE        (A) : 0.933                              
 200  MONOCHROMATOR                  : NULL                               
 200  OPTICS                         : NULL                               
 200                                                                      
 200  DETECTOR TYPE                  : IMAGE PLATE                        
 200  DETECTOR MANUFACTURER          : MARRESEARCH                        
 200  INTENSITY-INTEGRATION SOFTWARE : MOSFLM                             
 200  DATA SCALING SOFTWARE          : CCP4                               
 200                                                                      
 200  NUMBER OF UNIQUE REFLECTIONS   : 17104                              
 200  RESOLUTION RANGE HIGH      (A) : NULL                               
 200  RESOLUTION RANGE LOW       (A) : NULL                               
 200  REJECTION CRITERIA  (SIGMA(I)) : 0.000                              
 200                                                                      
 200 OVERALL.                                                             
 200  COMPLETENESS FOR RANGE     (%) : 96.2                               
 200  DATA REDUNDANCY                : 2.500                              
 200  R MERGE                    (I) : 0.04600                            
 200  R SYM                      (I) : NULL                               
 200  <I/SIGMA(I)> FOR THE DATA SET  : NULL                               
 200                                                                      
 200 IN THE HIGHEST RESOLUTION SHELL.                                     
 200  HIGHEST RESOLUTION SHELL, RANGE HIGH (A) : NULL                     
 200  HIGHEST RESOLUTION SHELL, RANGE LOW  (A) : NULL                     
 200  COMPLETENESS FOR SHELL     (%) : NULL                               
 200  DATA REDUNDANCY IN SHELL       : NULL                               
 200  R MERGE FOR SHELL          (I) : NULL                               
 200  R SYM FOR SHELL            (I) : NULL                               
 200  <I/SIGMA(I)> FOR SHELL         : NULL                               
 200                                                                      
 200 DIFFRACTION PROTOCOL: NULL                                           
 200 METHOD USED TO DETERMINE THE STRUCTURE: NULL                         
 200 SOFTWARE USED: X-PLOR 3.1                                            
 200 STARTING MODEL: NULL                                                 
 200                                                                      
 200 REMARK: NULL                                                         
 280                                                                      
 280 CRYSTAL                                                              
 280 SOLVENT CONTENT, VS   (%): 39.52                                     
 280 MATTHEWS COEFFICIENT, VM (ANGSTROMS**3/DA): 2.03                     
 280                                                                      
 280 CRYSTALLIZATION CONDITIONS: PH 7.8                                   
 290                                                                      
 290 CRYSTALLOGRAPHIC SYMMETRY                                            
 290 SYMMETRY OPERATORS FOR SPACE GROUP: P 21 21 21                       
 290                                                                      
 290      SYMOP   SYMMETRY                                                
 290     NNNMMM   OPERATOR                                                
 290       1555   X,Y,Z                                                   
 290       2555   -X+1/2,-Y,Z+1/2                                         
 290       3555   -X,Y+1/2,-Z+1/2                                         
 290       4555   X+1/2,-Y+1/2,-Z                                         
 290                                                                      
 290     WHERE NNN -> OPERATOR NUMBER                                     
 290           MMM -> TRANSLATION VECTOR                                  
 290                                                                      
 290 CRYSTALLOGRAPHIC SYMMETRY TRANSFORMATIONS                            
 290 THE FOLLOWING TRANSFORMATIONS OPERATE ON THE ATOM/HETATM             
 290 RECORDS IN THIS ENTRY TO PRODUCE CRYSTALLOGRAPHICALLY                
 290 RELATED MOLECULES.                                                   
 290   SMTRY1   1  1.000000  0.000000  0.000000        0.00000            
 290   SMTRY2   1  0.000000  1.000000  0.000000        0.00000            
 290   SMTRY3   1  0.000000  0.000000  1.000000        0.00000            
 290   SMTRY1   2 -1.000000  0.000000  0.000000       21.05000            
 290   SMTRY2   2  0.000000 -1.000000  0.000000        0.00000            
 290   SMTRY3   2  0.000000  0.000000  1.000000       44.40000            
 290   SMTRY1   3 -1.000000  0.000000  0.000000        0.00000            
 290   SMTRY2   3  0.000000  1.000000  0.000000       31.55000            
 290   SMTRY3   3  0.000000  0.000000 -1.000000       44.40000            
 290   SMTRY1   4  1.000000  0.000000  0.000000       21.05000            
 290   SMTRY2   4  0.000000 -1.000000  0.000000       31.55000            
 290   SMTRY3   4  0.000000  0.000000 -1.000000        0.00000            
 290                                                                      
 290 REMARK: NULL                                                         
 300                                                                      
 300 BIOMOLECULE: 1                                                       
 300 SEE REMARK 350 FOR THE AUTHOR PROVIDED AND/OR PROGRAM                
 300 GENERATED ASSEMBLY INFORMATION FOR THE STRUCTURE IN                  
 300 THIS ENTRY. THE REMARK MAY ALSO PROVIDE INFORMATION ON               
 300 BURIED SURFACE AREA.                                                 
 350                                                                      
 350 COORDINATES FOR A COMPLETE MULTIMER REPRESENTING THE KNOWN           
 350 BIOLOGICALLY SIGNIFICANT OLIGOMERIZATION STATE OF THE                
 350 MOLECULE CAN BE GENERATED BY APPLYING BIOMT TRANSFORMATIONS          
 350 GIVEN BELOW.  BOTH NON-CRYSTALLOGRAPHIC AND                          
 350 CRYSTALLOGRAPHIC OPERATIONS ARE GIVEN.                               
 350                                                                      
 350 BIOMOLECULE: 1                                                       
 350 AUTHOR DETERMINED BIOLOGICAL UNIT: MONOMERIC                         
 350 APPLY THE FOLLOWING TO CHAINS: A                                     
 350   BIOMT1   1  1.000000  0.000000  0.000000        0.00000            
 350   BIOMT2   1  0.000000  1.000000  0.000000        0.00000            
 350   BIOMT3   1  0.000000  0.000000  1.000000        0.00000            
 400                                                                      
 400 COMPOUND                                                             
 400                                                                      
 400 THE STRUCTURE DEPOSITED IS AN ACYL-ENZYME COMPLEX, BETWEEN           
 400 6ALPHA-HYDROXYMETHYL PENICILLOIC ACID AND THE TEM 1                  
 400 BETA-LACTAMASE FROM ESCHERICHIA COLI.  THE ACYLATED RESIDUE          
 400 IS SER 70.                                                           
 470                                                                      
 470 MISSING ATOM                                                         
 470 THE FOLLOWING RESIDUES HAVE MISSING ATOMS(M=MODEL NUMBER;            
 470 RES=RESIDUE NAME; C=CHAIN IDENTIFIER; SSEQ=SEQUENCE NUMBER;          
 470 I=INSERTION CODE):                                                   
 470   M RES CSSEQI  ATOMS                                                
 470     GLU A 240    N                                                   
 500                                                                      
 500 GEOMETRY AND STEREOCHEMISTRY                                         
 500 SUBTOPIC: TORSION ANGLES                                             
 500                                                                      
 500 TORSION ANGLES OUTSIDE THE EXPECTED RAMACHANDRAN REGIONS:            
 500 (M=MODEL NUMBER; RES=RESIDUE NAME; C=CHAIN IDENTIFIER;               
 500 SSEQ=SEQUENCE NUMBER; I=INSERTION CODE).                             
 500                                                                      
 500 STANDARD TABLE:                                                      
 500 FORMAT:(10X,I3,1X,A3,1X,A1,I4,A1,4X,F7.2,3X,F7.2)                    
 500                                                                      
 500 EXPECTED VALUES: GJ KLEYWEGT AND TA JONES (1996). PHI/PSI-           
 500 CHOLOGY: RAMACHANDRAN REVISITED. STRUCTURE 4, 1395 - 1400            
 500                                                                      
 500  M RES CSSEQI        PSI       PHI                                   
 500    MET A  69     -148.06     58.71                                   
 500    TYR A 105       75.34     55.97                                   
 500    LEU A 220     -124.12    -97.42                                   
 500                                                                      
 500 REMARK: NULL                                                         
 800                                                                      
 800 SITE                                                                 
 800 SITE_IDENTIFIER: AC1                                                 
 800 EVIDENCE_CODE: SOFTWARE                                              
 800 SITE_DESCRIPTION: BINDING SITE FOR RESIDUE ALP A 291                 

>  <DBREF>  (1) 
 1TEM A   26   290  UNP    P62593   BLAT_ECOLI      24    286             

>  <SEQRES>  (1) 
   1 A  263  HIS PRO GLU THR LEU VAL LYS VAL LYS ASP ALA GLU ASP          
   2 A  263  GLN LEU GLY ALA ARG VAL GLY TYR ILE GLU LEU ASP LEU          
   3 A  263  ASN SER GLY LYS ILE LEU GLU SER PHE ARG PRO GLU GLU          
   4 A  263  ARG PHE PRO MET MET SER THR PHE LYS VAL LEU LEU CYS          
   5 A  263  GLY ALA VAL LEU SER ARG ILE ASP ALA GLY GLN GLU GLN          
   6 A  263  LEU GLY ARG ARG ILE HIS TYR SER GLN ASN ASP LEU VAL          
   7 A  263  GLU TYR SER PRO VAL THR GLU LYS HIS LEU THR ASP GLY          
   8 A  263  MET THR VAL ARG GLU LEU CYS SER ALA ALA ILE THR MET          
   9 A  263  SER ASP ASN THR ALA ALA ASN LEU LEU LEU THR THR ILE          
  10 A  263  GLY GLY PRO LYS GLU LEU THR ALA PHE LEU HIS ASN MET          
  11 A  263  GLY ASP HIS VAL THR ARG LEU ASP ARG TRP GLU PRO GLU          
  12 A  263  LEU ASN GLU ALA ILE PRO ASN ASP GLU ARG ASP THR THR          
  13 A  263  MET PRO VAL ALA MET ALA THR THR LEU ARG LYS LEU LEU          
  14 A  263  THR GLY GLU LEU LEU THR LEU ALA SER ARG GLN GLN LEU          
  15 A  263  ILE ASP TRP MET GLU ALA ASP LYS VAL ALA GLY PRO LEU          
  16 A  263  LEU ARG SER ALA LEU PRO ALA GLY TRP PHE ILE ALA ASP          
  17 A  263  LYS SER GLY ALA GLY GLU ARG GLY SER ARG GLY ILE ILE          
  18 A  263  ALA ALA LEU GLY PRO ASP GLY LYS PRO SER ARG ILE VAL          
  19 A  263  VAL ILE TYR THR THR GLY SER GLN ALA THR MET ASP GLU          
  20 A  263  ARG ASN ARG GLN ILE ALA GLU ILE GLY ALA SER LEU ILE          
  21 A  263  LYS HIS TRP                                                  

>  <HET>  (1) 
 ALP  A 291      15                                                       

>  <HETNAM>  (1) 
     ALP 2-(1-CARBOXY-2-HYDROXY-ETHYL)-5,5-DIMETHYL-                      
   2 ALP  THIAZOLIDINE-4-CARBOXYLIC ACID                                  

>  <FORMUL>  (1) 
   2  ALP    C9 H15 N O5 S                                                
   3  HOH   *240(H2 O)                                                    

>  <HELIX>  (1) 
   1   1 PRO A   27  LEU A   40  1                                  14    
   2   2 MET A   69  ASP A   85  5                                  17    
   3   3 GLN A   99  ASP A  101  5                                   3    
   4   4 THR A  109  LYS A  111  5                                   3    
   5   5 VAL A  119  THR A  128  1                                  10    
   6   6 ASN A  132  ILE A  142  1                                  11    
   7   7 PRO A  145  MET A  155  1                                  11    
   8   8 GLU A  168  ASN A  170  5                                   3    
   9   9 PRO A  183  THR A  195  1                                  13    
  10  10 LEU A  201  GLU A  212  1                                  12    
  11  11 LEU A  221  ALA A  224  5                                   4    
  12  12 MET A  272  LYS A  288  1                                  17    

>  <SHEET>  (1) 
   1   A 5 PHE A 230  ALA A 237  0                                        
   2   A 5 ARG A 244  GLY A 251 -1  N  GLY A 251   O  PHE A 230           
   3   A 5 ARG A 259  THR A 266 -1  N  THR A 265   O  ARG A 244           
   4   A 5 ARG A  43  ASP A  50 -1  N  LEU A  49   O  ILE A 260           
   5   A 5 ILE A  56  PHE A  60 -1  N  PHE A  60   O  TYR A  46           
   1   B 2 ARG A  65  PRO A  67  0                                        
   2   B 2 THR A 180  MET A 182 -1  N  THR A 181   O  PHE A  66           

>  <SSBOND>  (1) 
   1 CYS A   77    CYS A  123                          1555   1555  2.03  

>  <LINK>  (1) 
       C1  ALP A 291                 OG  SER A  70     1555   1555  1.41  

>  <CISPEP>  (1) 
   1 GLU A  166    PRO A  167          0         0.22                     

>  <SITE>  (1) 
   1 AC1 13 MET A  69  SER A  70  TYR A 105  SER A 130                    
   2 AC1 13 ASN A 132  GLU A 166  ASN A 170  SER A 235                    
   3 AC1 13 GLY A 236  ALA A 237  ARG A 244  HOH A 302                    
   4 AC1 13 HOH A 388                                                     

>  <ORIGX1>  (1) 
      1.000000  0.000000  0.000000        0.00000                         

>  <ORIGX2>  (1) 
      0.000000  1.000000  0.000000        0.00000                         

>  <ORIGX3>  (1) 
      0.000000  0.000000  1.000000        0.00000                         

>  <SCALE1>  (1) 
      0.023753  0.000000  0.000000        0.00000                         

>  <SCALE2>  (1) 
      0.000000  0.015848  0.000000        0.00000                         

>  <SCALE3>  (1) 
      0.000000  0.000000  0.011261        0.00000                         

>  <MASTER>  (1) 
      245    0    1   12    7    0    4    6 2295    1   18   21          

$$$$
