start_structures/Ligand_Substrate/Ligand_Complex_Stripped/WY4_1ONG.pdb
     RDKit          3D

 27 29  0  0  1  0  0  0  0  0999 V2000
   48.7946   51.8792   46.3355 N   0  0  0  0  0  0  0  0  0  0  0  0
   47.4447   51.3839   46.5432 C   0  0  2  0  0  0  0  0  0  0  0  0
   47.4038   49.8881   46.4407 C   0  0  0  0  0  0  0  0  0  0  0  0
   46.4741   49.2684   46.9365 O   0  0  0  0  0  0  0  0  0  0  0  0
   46.5147   52.0005   45.5087 C   0  0  0  0  0  0  0  0  0  0  0  0
   46.1680   53.3299   45.8754 O   0  0  0  0  0  0  0  0  0  0  0  0
   44.4245   57.0184   47.8846 S   0  0  0  0  0  0  0  0  0  0  0  0
   44.0323   58.1528   46.5450 C   0  0  0  0  0  0  0  0  0  0  0  0
   44.8962   58.4066   45.5573 C   0  0  0  0  0  0  0  0  0  0  0  0
   46.1258   57.6709   45.4439 N   0  0  0  0  0  0  0  0  0  0  0  0
   46.1976   56.3711   45.4585 C   0  0  0  0  0  0  0  0  0  0  0  0
   44.9739   55.4986   45.5225 C   0  0  1  0  0  0  0  0  0  0  0  0
   45.3173   54.1117   45.0917 C   0  0  0  0  0  0  0  0  0  0  0  0
   44.8328   53.6605   44.0191 O   0  0  0  0  0  0  0  0  0  0  0  0
   44.5883   59.4519   44.5711 C   0  0  0  0  0  0  0  0  0  0  0  0
   45.3977   59.6962   43.6381 O   0  0  0  0  0  0  0  0  0  0  0  0
   43.4055   60.1784   44.6554 O   0  0  0  0  0  0  0  0  0  0  0  0
   44.2833   55.4778   46.8986 C   0  0  2  0  0  0  0  0  0  0  0  0
   42.8572   55.0391   46.7930 C   0  0  0  0  0  0  0  0  0  0  0  0
   42.3630   53.9727   47.4632 N   0  0  0  0  0  0  0  0  0  0  0  0
   41.0706   53.9644   47.0925 C   0  0  0  0  0  0  0  0  0  0  0  0
   40.7629   54.9336   46.2253 N   0  0  0  0  0  0  0  0  0  0  0  0
   41.8754   55.6533   46.0242 C   0  0  0  0  0  0  0  0  0  0  0  0
   40.0447   52.9479   47.4834 C   0  0  0  0  0  0  0  0  0  0  0  0
   38.7502   53.5093   47.3617 O   0  0  0  0  0  0  0  0  0  0  0  0
   38.5623   53.9093   46.0164 C   0  0  0  0  0  0  0  0  0  0  0  0
   39.4218   55.1471   45.6973 C   0  0  0  0  0  0  0  0  0  0  0  0
  2  3  1  0
  2  1  1  6
  4  3  2  0
  5  2  1  0
  6 13  1  0
  6  5  1  0
  7  8  1  0
  7 18  1  0
  8  9  2  0
  9 10  1  0
  9 15  1  0
 10 11  2  0
 11 12  1  0
 12 13  1  6
 12 18  1  0
 13 14  2  0
 15 16  2  0
 15 17  1  0
 18 19  1  6
 19 20  1  0
 19 23  2  0
 20 21  2  0
 21 22  1  0
 21 24  1  0
 22 23  1  0
 22 27  1  0
 24 25  1  0
 25 26  1  0
 26 27  1  0
M  END
>  <HEADER>  (1) 
    HYDROLASE                               27-FEB-03   1ONG              

>  <TITLE>  (1) 
    SHV-1 BETA-LACTAMASE WITH A PENEM INHIBITOR                           

>  <COMPND>  (1) 
    MOL_ID: 1;                                                            
   2 MOLECULE: BETA-LACTAMASE SHV-1;                                      
   3 CHAIN: A;                                                            
   4 SYNONYM: PIT-2; PENICILLINASE;                                       
   5 EC: 3.5.2.6;                                                         
   6 ENGINEERED: YES                                                      

>  <SOURCE>  (1) 
    MOL_ID: 1;                                                            
   2 ORGANISM_SCIENTIFIC: KLEBSIELLA PNEUMONIAE;                          
   3 ORGANISM_TAXID: 573;                                                 
   4 STRAIN: 15571;                                                       
   5 GENE: BLA;                                                           
   6 EXPRESSION_SYSTEM: ESCHERICHIA COLI STR. K-12 SUBSTR. DH10B;         
   7 EXPRESSION_SYSTEM_TAXID: 316385;                                     
   8 EXPRESSION_SYSTEM_STRAIN: DH10B;                                     
   9 EXPRESSION_SYSTEM_VECTOR_TYPE: PLASMID;                              
  10 EXPRESSION_SYSTEM_PLASMID: PBCSK;                                    
  11 EXPRESSION_SYSTEM_GENE: BLA                                          

>  <KEYWDS>  (1) 
    BETA-LACTAM HYDROLASE, PENICILLINASE, DETERGENT BINDING, DRUG DESIGN, 
   2 HYDROLASE                                                            

>  <EXPDTA>  (1) 
    X-RAY DIFFRACTION                                                     

>  <AUTHOR>  (1) 
    M.NUKAGA,K.MAYAMA,R.A.BONOMO,J.R.KNOX                                 

>  <REVDAT>  (1) 
   4   16-AUG-23 1ONG    1       REMARK                                   
   3   24-JUL-19 1ONG    1       REMARK LINK                              
   2   24-FEB-09 1ONG    1       VERSN                                    
   1   09-DEC-03 1ONG    0                                                

>  <JRNL>  (1) 
      AUTH   M.NUKAGA,T.ABE,A.M.VENKATESAN,T.S.MANSOUR,R.A.BONOMO,        
      AUTH 2 J.R.KNOX                                                     
      TITL   INHIBITION OF CLASS A AND CLASS C BETA-LACTAMASES BY PENEMS: 
      TITL 2 CRYSTALLOGRAPHIC STRUCTURES OF A NOVEL 1,4-THIAZEPINE        
      TITL 3 INTERMEDIATE                                                 
      REF    BIOCHEMISTRY                  V.  42 13152 2003              
      REFN                   ISSN 0006-2960                               
      PMID   14609325                                                     
      DOI    10.1021/BI034986B                                            

>  <REMARK>  (1) 
   2                                                                      
   2 RESOLUTION.    1.10 ANGSTROMS.                                       
   3                                                                      
   3 REFINEMENT.                                                          
   3   PROGRAM     : SHELXL-97                                            
   3   AUTHORS     : G.M.SHELDRICK                                        
   3                                                                      
   3  DATA USED IN REFINEMENT.                                            
   3   RESOLUTION RANGE HIGH (ANGSTROMS) : 1.10                           
   3   RESOLUTION RANGE LOW  (ANGSTROMS) : 20.00                          
   3   DATA CUTOFF            (SIGMA(F)) : 0.000                          
   3   COMPLETENESS FOR RANGE        (%) : 92.5                           
   3   CROSS-VALIDATION METHOD           : THROUGHOUT                     
   3   FREE R VALUE TEST SET SELECTION   : RANDOM                         
   3                                                                      
   3  FIT TO DATA USED IN REFINEMENT (NO CUTOFF).                         
   3   R VALUE   (WORKING + TEST SET, NO CUTOFF) : 0.141                  
   3   R VALUE          (WORKING SET, NO CUTOFF) : 0.141                  
   3   FREE R VALUE                  (NO CUTOFF) : 0.186                  
   3   FREE R VALUE TEST SET SIZE (%, NO CUTOFF) : 4.000                  
   3   FREE R VALUE TEST SET COUNT   (NO CUTOFF) : 3560                   
   3   TOTAL NUMBER OF REFLECTIONS   (NO CUTOFF) : 88320                  
   3                                                                      
   3  FIT/AGREEMENT OF MODEL FOR DATA WITH F>4SIG(F).                     
   3   R VALUE   (WORKING + TEST SET, F>4SIG(F)) : 0.135                  
   3   R VALUE          (WORKING SET, F>4SIG(F)) : 0.135                  
   3   FREE R VALUE                  (F>4SIG(F)) : 0.179                  
   3   FREE R VALUE TEST SET SIZE (%, F>4SIG(F)) : 4.000                  
   3   FREE R VALUE TEST SET COUNT   (F>4SIG(F)) : 3228                   
   3   TOTAL NUMBER OF REFLECTIONS   (F>4SIG(F)) : 79815                  
   3                                                                      
   3  NUMBER OF NON-HYDROGEN ATOMS USED IN REFINEMENT.                    
   3   PROTEIN ATOMS      : 2008                                          
   3   NUCLEIC ACID ATOMS : 0                                             
   3   HETEROGEN ATOMS    : 66                                            
   3   SOLVENT ATOMS      : 296                                           
   3                                                                      
   3  MODEL REFINEMENT.                                                   
   3   OCCUPANCY SUM OF NON-HYDROGEN ATOMS      : 2344.9                  
   3   OCCUPANCY SUM OF HYDROGEN ATOMS          : 2002.7                  
   3   NUMBER OF DISCRETELY DISORDERED RESIDUES : 47                      
   3   NUMBER OF LEAST-SQUARES PARAMETERS       : 22711                   
   3   NUMBER OF RESTRAINTS                     : 28932                   
   3                                                                      
   3  RMS DEVIATIONS FROM RESTRAINT TARGET VALUES.                        
   3   BOND LENGTHS                         (A) : 0.014                   
   3   ANGLE DISTANCES                      (A) : 0.032                   
   3   SIMILAR DISTANCES (NO TARGET VALUES) (A) : 0.000                   
   3   DISTANCES FROM RESTRAINT PLANES      (A) : 0.035                   
   3   ZERO CHIRAL VOLUMES               (A**3) : 0.081                   
   3   NON-ZERO CHIRAL VOLUMES           (A**3) : 0.084                   
   3   ANTI-BUMPING DISTANCE RESTRAINTS     (A) : 0.028                   
   3   RIGID-BOND ADP COMPONENTS         (A**2) : 0.005                   
   3   SIMILAR ADP COMPONENTS            (A**2) : 0.047                   
   3   APPROXIMATELY ISOTROPIC ADPS      (A**2) : 0.100                   
   3                                                                      
   3  BULK SOLVENT MODELING.                                              
   3   METHOD USED: NULL                                                  
   3                                                                      
   3  STEREOCHEMISTRY TARGET VALUES : ENGH & HUBER                        
   3   SPECIAL CASE: NULL                                                 
   3                                                                      
   3  OTHER REFINEMENT REMARKS: NULL                                      
   4                                                                      
   4 1ONG COMPLIES WITH FORMAT V. 3.30, 13-JUL-11                         
 100                                                                      
 100 THIS ENTRY HAS BEEN PROCESSED BY RCSB ON 05-MAR-03.                  
 100 THE DEPOSITION ID IS D_1000018470.                                   
 200                                                                      
 200 EXPERIMENTAL DETAILS                                                 
 200  EXPERIMENT TYPE                : X-RAY DIFFRACTION                  
 200  DATE OF DATA COLLECTION        : 28-APR-00                          
 200  TEMPERATURE           (KELVIN) : 100                                
 200  PH                             : 7.0                                
 200  NUMBER OF CRYSTALS USED        : 1                                  
 200                                                                      
 200  SYNCHROTRON              (Y/N) : Y                                  
 200  RADIATION SOURCE               : CHESS                              
 200  BEAMLINE                       : A1                                 
 200  X-RAY GENERATOR MODEL          : NULL                               
 200  MONOCHROMATIC OR LAUE    (M/L) : M                                  
 200  WAVELENGTH OR RANGE        (A) : 0.9349                             
 200  MONOCHROMATOR                  : NULL                               
 200  OPTICS                         : NULL                               
 200                                                                      
 200  DETECTOR TYPE                  : CCD                                
 200  DETECTOR MANUFACTURER          : ADSC QUANTUM 210                   
 200  INTENSITY-INTEGRATION SOFTWARE : DENZO                              
 200  DATA SCALING SOFTWARE          : SCALEPACK                          
 200                                                                      
 200  NUMBER OF UNIQUE REFLECTIONS   : 87983                              
 200  RESOLUTION RANGE HIGH      (A) : 1.100                              
 200  RESOLUTION RANGE LOW       (A) : 50.000                             
 200  REJECTION CRITERIA  (SIGMA(I)) : NULL                               
 200                                                                      
 200 OVERALL.                                                             
 200  COMPLETENESS FOR RANGE     (%) : 92.6                               
 200  DATA REDUNDANCY                : 11.60                              
 200  R MERGE                    (I) : 0.10900                            
 200  R SYM                      (I) : NULL                               
 200  <I/SIGMA(I)> FOR THE DATA SET  : 14.5000                            
 200                                                                      
 200 IN THE HIGHEST RESOLUTION SHELL.                                     
 200  HIGHEST RESOLUTION SHELL, RANGE HIGH (A) : 1.10                     
 200  HIGHEST RESOLUTION SHELL, RANGE LOW  (A) : 1.14                     
 200  COMPLETENESS FOR SHELL     (%) : 74.2                               
 200  DATA REDUNDANCY IN SHELL       : 4.40                               
 200  R MERGE FOR SHELL          (I) : 0.37500                            
 200  R SYM FOR SHELL            (I) : NULL                               
 200  <I/SIGMA(I)> FOR SHELL         : 3.300                              
 200                                                                      
 200 DIFFRACTION PROTOCOL: SINGLE WAVELENGTH                              
 200 METHOD USED TO DETERMINE THE STRUCTURE: MOLECULAR REPLACEMENT        
 200 SOFTWARE USED: CNS                                                   
 200 STARTING MODEL: PDB ENTRY 1SHV                                       
 200                                                                      
 200 REMARK: NULL                                                         
 280                                                                      
 280 CRYSTAL                                                              
 280 SOLVENT CONTENT, VS   (%): 41.00                                     
 280 MATTHEWS COEFFICIENT, VM (ANGSTROMS**3/DA): 2.08                     
 280                                                                      
 280 CRYSTALLIZATION CONDITIONS: 15% PEG-6000, 50 MM HEPES, 0.56 MM       
 280  CYMAL-6, PH 7.0, VAPOR DIFFUSION, SITTING DROP, TEMPERATURE         
 280  293.0K                                                              
 290                                                                      
 290 CRYSTALLOGRAPHIC SYMMETRY                                            
 290 SYMMETRY OPERATORS FOR SPACE GROUP: P 21 21 21                       
 290                                                                      
 290      SYMOP   SYMMETRY                                                
 290     NNNMMM   OPERATOR                                                
 290       1555   X,Y,Z                                                   
 290       2555   -X+1/2,-Y,Z+1/2                                         
 290       3555   -X,Y+1/2,-Z+1/2                                         
 290       4555   X+1/2,-Y+1/2,-Z                                         
 290                                                                      
 290     WHERE NNN -> OPERATOR NUMBER                                     
 290           MMM -> TRANSLATION VECTOR                                  
 290                                                                      
 290 CRYSTALLOGRAPHIC SYMMETRY TRANSFORMATIONS                            
 290 THE FOLLOWING TRANSFORMATIONS OPERATE ON THE ATOM/HETATM             
 290 RECORDS IN THIS ENTRY TO PRODUCE CRYSTALLOGRAPHICALLY                
 290 RELATED MOLECULES.                                                   
 290   SMTRY1   1  1.000000  0.000000  0.000000        0.00000            
 290   SMTRY2   1  0.000000  1.000000  0.000000        0.00000            
 290   SMTRY3   1  0.000000  0.000000  1.000000        0.00000            
 290   SMTRY1   2 -1.000000  0.000000  0.000000       24.77750            
 290   SMTRY2   2  0.000000 -1.000000  0.000000        0.00000            
 290   SMTRY3   2  0.000000  0.000000  1.000000       42.65750            
 290   SMTRY1   3 -1.000000  0.000000  0.000000        0.00000            
 290   SMTRY2   3  0.000000  1.000000  0.000000       27.59150            
 290   SMTRY3   3  0.000000  0.000000 -1.000000       42.65750            
 290   SMTRY1   4  1.000000  0.000000  0.000000       24.77750            
 290   SMTRY2   4  0.000000 -1.000000  0.000000       27.59150            
 290   SMTRY3   4  0.000000  0.000000 -1.000000        0.00000            
 290                                                                      
 290 REMARK: NULL                                                         
 300                                                                      
 300 BIOMOLECULE: 1                                                       
 300 SEE REMARK 350 FOR THE AUTHOR PROVIDED AND/OR PROGRAM                
 300 GENERATED ASSEMBLY INFORMATION FOR THE STRUCTURE IN                  
 300 THIS ENTRY. THE REMARK MAY ALSO PROVIDE INFORMATION ON               
 300 BURIED SURFACE AREA.                                                 
 350                                                                      
 350 COORDINATES FOR A COMPLETE MULTIMER REPRESENTING THE KNOWN           
 350 BIOLOGICALLY SIGNIFICANT OLIGOMERIZATION STATE OF THE                
 350 MOLECULE CAN BE GENERATED BY APPLYING BIOMT TRANSFORMATIONS          
 350 GIVEN BELOW.  BOTH NON-CRYSTALLOGRAPHIC AND                          
 350 CRYSTALLOGRAPHIC OPERATIONS ARE GIVEN.                               
 350                                                                      
 350 BIOMOLECULE: 1                                                       
 350 AUTHOR DETERMINED BIOLOGICAL UNIT: MONOMERIC                         
 350 APPLY THE FOLLOWING TO CHAINS: A                                     
 350   BIOMT1   1  1.000000  0.000000  0.000000        0.00000            
 350   BIOMT2   1  0.000000  1.000000  0.000000        0.00000            
 350   BIOMT3   1  0.000000  0.000000  1.000000        0.00000            
 470                                                                      
 470 MISSING ATOM                                                         
 470 THE FOLLOWING RESIDUES HAVE MISSING ATOMS (M=MODEL NUMBER;           
 470 RES=RESIDUE NAME; C=CHAIN IDENTIFIER; SSEQ=SEQUENCE NUMBER;          
 470 I=INSERTION CODE):                                                   
 470   M RES CSSEQI  ATOMS                                                
 470     GLU A  31    CD   OE1  OE2                                       
 470     LEU A  35    CD1  CD2                                            
 470     GLN A 100    CD   OE1  NE2                                       
 470     LYS A 111    CE   NZ                                             
 470     GLN A 197    CD   OE1  NE2                                       
 470     GLU A 240    CD   OE1  OE2                                       
 500                                                                      
 500 GEOMETRY AND STEREOCHEMISTRY                                         
 500 SUBTOPIC: COVALENT BOND ANGLES                                       
 500                                                                      
 500 THE STEREOCHEMICAL PARAMETERS OF THE FOLLOWING RESIDUES              
 500 HAVE VALUES WHICH DEVIATE FROM EXPECTED VALUES BY MORE               
 500 THAN 6*RMSD (M=MODEL NUMBER; RES=RESIDUE NAME; C=CHAIN               
 500 IDENTIFIER; SSEQ=SEQUENCE NUMBER; I=INSERTION CODE).                 
 500                                                                      
 500 STANDARD TABLE:                                                      
 500 FORMAT: (10X,I3,1X,A3,1X,A1,I4,A1,3(1X,A4,2X),12X,F5.1)              
 500                                                                      
 500 EXPECTED VALUES PROTEIN: ENGH AND HUBER, 1999                        
 500 EXPECTED VALUES NUCLEIC ACID: CLOWNEY ET AL 1996                     
 500                                                                      
 500  M RES CSSEQI ATM1   ATM2   ATM3                                     
 500    ARG A  55   NE  -  CZ  -  NH1 ANGL. DEV. =   3.7 DEGREES          
 500    ARG A  55   NE  -  CZ  -  NH1 ANGL. DEV. =   6.5 DEGREES          
 500    ARG A  55   NE  -  CZ  -  NH2 ANGL. DEV. =  -6.0 DEGREES          
 500    LEU A  57   O   -  C   -  N   ANGL. DEV. = -10.0 DEGREES          
 500    ARG A  65   NE  -  CZ  -  NH1 ANGL. DEV. =  -5.7 DEGREES          
 500    ARG A  65   NE  -  CZ  -  NH2 ANGL. DEV. =   7.0 DEGREES          
 500    ARG A  83   NE  -  CZ  -  NH1 ANGL. DEV. =   4.9 DEGREES          
 500    ARG A  83   NE  -  CZ  -  NH1 ANGL. DEV. =   4.5 DEGREES          
 500    ARG A  83   NE  -  CZ  -  NH2 ANGL. DEV. =  -3.6 DEGREES          
 500    ARG A 161   NE  -  CZ  -  NH1 ANGL. DEV. =  -3.2 DEGREES          
 500    ASP A 176   CB  -  CG  -  OD1 ANGL. DEV. =   5.9 DEGREES          
 500    ARG A 178   NE  -  CZ  -  NH1 ANGL. DEV. =  -3.7 DEGREES          
 500    ARG A 215   CD  -  NE  -  CZ  ANGL. DEV. =  15.8 DEGREES          
 500    ARG A 241   NE  -  CZ  -  NH1 ANGL. DEV. =   3.4 DEGREES          
 500    ARG A 244   NE  -  CZ  -  NH1 ANGL. DEV. =   3.0 DEGREES          
 500    ALA A 257   CB  -  CA  -  C   ANGL. DEV. =  10.9 DEGREES          
 500    ARG A 292   NE  -  CZ  -  NH2 ANGL. DEV. =   3.4 DEGREES          
 500                                                                      
 500 REMARK: NULL                                                         
 500                                                                      
 500 GEOMETRY AND STEREOCHEMISTRY                                         
 500 SUBTOPIC: TORSION ANGLES                                             
 500                                                                      
 500 TORSION ANGLES OUTSIDE THE EXPECTED RAMACHANDRAN REGIONS:            
 500 (M=MODEL NUMBER; RES=RESIDUE NAME; C=CHAIN IDENTIFIER;               
 500 SSEQ=SEQUENCE NUMBER; I=INSERTION CODE).                             
 500                                                                      
 500 STANDARD TABLE:                                                      
 500 FORMAT:(10X,I3,1X,A3,1X,A1,I4,A1,4X,F7.2,3X,F7.2)                    
 500                                                                      
 500 EXPECTED VALUES: GJ KLEYWEGT AND TA JONES (1996). PHI/PSI-           
 500 CHOLOGY: RAMACHANDRAN REVISITED. STRUCTURE 4, 1395 - 1400            
 500                                                                      
 500  M RES CSSEQI        PSI       PHI                                   
 500    LEU A  57     -111.27    -92.21                                   
 500    ALA A  59      106.60   -160.50                                   
 500    MET A  69     -141.69     49.12                                   
 500    TYR A 105       88.58     66.71                                   
 500                                                                      
 500 REMARK: NULL                                                         
 610                                                                      
 610 MISSING HETEROATOM                                                   
 610 THE FOLLOWING RESIDUES HAVE MISSING ATOMS (M=MODEL NUMBER;           
 610 RES=RESIDUE NAME; C=CHAIN IDENTIFIER; SSEQ=SEQUENCE NUMBER;          
 610 I=INSERTION CODE):                                                   
 610   M RES C SSEQI                                                      
 610     MA4 A  310                                                       
 800                                                                      
 800 SITE                                                                 
 800 SITE_IDENTIFIER: AC1                                                 
 800 EVIDENCE_CODE: SOFTWARE                                              
 800 SITE_DESCRIPTION: BINDING SITE FOR RESIDUE MA4 A 300                 
 800                                                                      
 800 SITE_IDENTIFIER: AC2                                                 
 800 EVIDENCE_CODE: SOFTWARE                                              
 800 SITE_DESCRIPTION: BINDING SITE FOR RESIDUE WY4 A 400                 
 900                                                                      
 900 RELATED ENTRIES                                                      
 900 RELATED ID: 1SHV   RELATED DB: PDB                                   
 900 STRUCTURE OF SHV-1 BETA-LACTAMASE(UNLIGANDED)                        
 900 RELATED ID: 1G56   RELATED DB: PDB                                   
 900 STRUCTURE OF SHV-1 BETA-LACTAMASE INHIBITED BY TAZOBACTAM            
 900 RELATED ID: 1ONH   RELATED DB: PDB                                   
 900 GC1 BETA-LACTAMASE WITH A PENEM INHIBITOR                            

>  <DBREF>  (1) 
 1ONG A   26   292  UNP    P14557   BLA1_ECOLI      22    286             

>  <SEQRES>  (1) 
   1 A  265  SER PRO GLN PRO LEU GLU GLN ILE LYS LEU SER GLU SER          
   2 A  265  GLN LEU SER GLY ARG VAL GLY MET ILE GLU MET ASP LEU          
   3 A  265  ALA SER GLY ARG THR LEU THR ALA TRP ARG ALA ASP GLU          
   4 A  265  ARG PHE PRO MET MET SER THR PHE LYS VAL VAL LEU CYS          
   5 A  265  GLY ALA VAL LEU ALA ARG VAL ASP ALA GLY ASP GLU GLN          
   6 A  265  LEU GLU ARG LYS ILE HIS TYR ARG GLN GLN ASP LEU VAL          
   7 A  265  ASP TYR SER PRO VAL SER GLU LYS HIS LEU ALA ASP GLY          
   8 A  265  MET THR VAL GLY GLU LEU CYS ALA ALA ALA ILE THR MET          
   9 A  265  SER ASP ASN SER ALA ALA ASN LEU LEU LEU ALA THR VAL          
  10 A  265  GLY GLY PRO ALA GLY LEU THR ALA PHE LEU ARG GLN ILE          
  11 A  265  GLY ASP ASN VAL THR ARG LEU ASP ARG TRP GLU THR GLU          
  12 A  265  LEU ASN GLU ALA LEU PRO GLY ASP ALA ARG ASP THR THR          
  13 A  265  THR PRO ALA SER MET ALA ALA THR LEU ARG LYS LEU LEU          
  14 A  265  THR SER GLN ARG LEU SER ALA ARG SER GLN ARG GLN LEU          
  15 A  265  LEU GLN TRP MET VAL ASP ASP ARG VAL ALA GLY PRO LEU          
  16 A  265  ILE ARG SER VAL LEU PRO ALA GLY TRP PHE ILE ALA ASP          
  17 A  265  LYS THR GLY ALA GLY GLU ARG GLY ALA ARG GLY ILE VAL          
  18 A  265  ALA LEU LEU GLY PRO ASN ASN LYS ALA GLU ARG ILE VAL          
  19 A  265  VAL ILE TYR LEU ARG ASP THR PRO ALA SER MET ALA GLU          
  20 A  265  ARG ASN GLN GLN ILE ALA GLY ILE GLY ALA ALA LEU ILE          
  21 A  265  GLU HIS TRP GLN ARG                                          

>  <HET>  (1) 
 MA4  A 300      46                                                       
 MA4  A 310      10                                                       
 WY4  A 400      21                                                       

>  <HETNAM>  (1) 
     MA4 CYCLOHEXYL-HEXYL-BETA-D-MALTOSIDE                                
     WY4 7-(5,6-DIHYDRO-8H-IMIDAZO[2,1-C][1,4]OXAZIN-2-YL)-6-             
   2 WY4  FORMYL-2,7-DIHYDRO- [1,4]THIAZEPINE-3-CARBOXYLIC ACID           

>  <FORMUL>  (1) 
   2  MA4    2(C24 H44 O11)                                               
   4  WY4    C13 H13 N3 O4 S                                              
   5  HOH   *296(H2 O)                                                    

>  <HELIX>  (1) 
   1   1 GLN A   28  SER A   41  1                                  14    
   2   2 THR A   71  ALA A   86  1                                  16    
   3   3 ARG A   98  LEU A  102  5                                   5    
   4   4 VAL A  108  LEU A  113  5                                   6    
   5   5 VAL A  119  SER A  130  1                                  12    
   6   6 ASP A  131  VAL A  142  1                                  12    
   7   7 GLY A  143  ILE A  155  1                                  13    
   8   8 THR A  167  GLU A  171  5                                   5    
   9   9 THR A  182  SER A  196  1                                  15    
  10  10 SER A  200  ASP A  213  1                                  14    
  11  11 ALA A  217  LEU A  225  1                                   9    
  12  12 GLU A  240  GLY A  242  5                                   3    
  13  13 SER A  271  HIS A  289  1                                  19    

>  <SHEET>  (1) 
   1   A 5 THR A  56  TRP A  60  0                                        
   2   A 5 ARG A  43  ASP A  50 -1  N  GLU A  48   O  LEU A  57           
   3   A 5 ARG A 259  ARG A 266 -1  O  ILE A 260   N  MET A  49           
   4   A 5 ARG A 244  GLY A 251 -1  N  ARG A 244   O  LEU A 265           
   5   A 5 PHE A 230  ALA A 237 -1  N  PHE A 230   O  GLY A 251           
   1   B 2 PHE A  66  PRO A  67  0                                        
   2   B 2 THR A 180  THR A 181 -1  O  THR A 181   N  PHE A  66           
   1   C 2 LYS A  94  ILE A  95  0                                        
   2   C 2 MET A 117  THR A 118 -1  O  MET A 117   N  ILE A  95           

>  <SSBOND>  (1) 
   1 CYS A   77    CYS A  123                          1555   1555  2.06  

>  <LINK>  (1) 
       OG  SER A  70                 C7  WY4 A 400     1555   1555  1.36  

>  <CISPEP>  (1) 
   1 GLU A  166    THR A  167          0         2.90                     

>  <SITE>  (1) 
   1 AC1 24 ARG A  93  ILE A  95  HIS A  96  ARG A  98                    
   2 AC1 24 VAL A 224  LEU A 225  PRO A 226  ALA A 248                    
   3 AC1 24 VAL A 261  ILE A 263  ILE A 279  ALA A 280                    
   4 AC1 24 GLY A 283  ALA A 284  GLU A 288  HOH A 517                    
   5 AC1 24 HOH A 564  HOH A 586  HOH A 619  HOH A 630                    
   6 AC1 24 HOH A 638  HOH A 675  HOH A 687  HOH A 798                    
   1 AC2 12 MET A  69  SER A  70  TYR A 105  SER A 130                    
   2 AC2 12 ASN A 132  GLU A 166  ASN A 170  GLY A 236                    
   3 AC2 12 ALA A 237  HOH A 501  HOH A 627  HOH A 760                    

>  <ORIGX1>  (1) 
      1.000000  0.000000  0.000000        0.00000                         

>  <ORIGX2>  (1) 
      0.000000  1.000000  0.000000        0.00000                         

>  <ORIGX3>  (1) 
      0.000000  0.000000  1.000000        0.00000                         

>  <SCALE1>  (1) 
      0.020180  0.000000  0.000000        0.00000                         

>  <SCALE2>  (1) 
      0.000000  0.018122  0.000000        0.00000                         

>  <SCALE3>  (1) 
      0.000000  0.000000  0.011721        0.00000                         

>  <ANISOU>  (1) 
  391  N   SER A  70     1206   1436   1625     14    -29    106       N  
  392  CA  SER A  70     1126   1462   1643   -168   -198    143       C  
  393  C   SER A  70      965   1489   1525    -67   -179    -67       C  
  394  O   SER A  70     1172   1418   1548    -77   -207     71       O  
  395  CB  SER A  70     1642   1533   1605     91   -183     94       C  
  396  OG  SER A  70     1636   1800   2047    -95   -443    503       O  
 2198  S1  WY4 A 400     1914   1873   2429    283   -778   -298       S  
 2199  C2  WY4 A 400     2493   1909   2949    111   -713   -500       C  
 2200  C3  WY4 A 400     2581   2135   3965   -336  -1075    533       C  
 2201  N4  WY4 A 400     2135   1785   3710   -664   -771    531       N  
 2202  C5  WY4 A 400     1763   1705   2824    -70   -310    -94       C  
 2203  C6  WY4 A 400     1513   1720   1867   -218   -355    572       C  
 2204  C7  WY4 A 400     1490   1818   1662    -34    -15    677       C  
 2205  O8  WY4 A 400     1300    923   2122     87      1    375       O  
 2206  C31 WY4 A 400     3764   2223   4733   -601  -1790    968       C  
 2207  O32 WY4 A 400     4038   2435   5289  -1102  -1866   1576       O  
 2208  O33 WY4 A 400     4533   2391   5422   -183  -2250    879       O  
 2209  C61 WY4 A 400     1666   1964   2023    184   -507    100       C  
 2210  C62 WY4 A 400     2015   1420   1972    158   -560    140       C  
 2211  N63 WY4 A 400     2469   1691   2036    404   -395   -122       N  
 2212  C64 WY4 A 400     2381   2021   2363     -3    -82    132       C  
 2213  N65 WY4 A 400     2466   2753   1913    142   -599    296       N  
 2214  C66 WY4 A 400     1613   1364   2336   -545   -539    456       C  
 2215  C67 WY4 A 400     2989   2128   2708   -125    458    -92       C  
 2216  O68 WY4 A 400     2489   4103   2461   -472    -72    691       O  
 2217  C69 WY4 A 400     1853   4795   2842   -206    291    966       C  
 2218  C70 WY4 A 400     3152   2993   2056   -475   -405    399       C  

>  <MASTER>  (1) 
      268    0    3   13    9    0    9    6 2370    1   80   21          

$$$$
