start_structures/Ligand_Substrate/Ligand_Complex_Stripped/DRW_3IQA.pdb
     RDKit          3D

 33 34  0  0  1  0  0  0  0  0999 V2000
   48.8002   51.8736   46.3374 N   0  0  0  0  0  0  0  0  0  0  0  0
   47.4484   51.3834   46.5430 C   0  0  2  0  0  0  0  0  0  0  0  0
   47.4038   49.8877   46.4403 C   0  0  0  0  0  0  0  0  0  0  0  0
   46.4736   49.2696   46.9369 O   0  0  0  0  0  0  0  0  0  0  0  0
   46.5156   52.0033   45.5089 C   0  0  0  0  0  0  0  0  0  0  0  0
   46.1583   53.3323   45.8735 O   0  0  0  0  0  0  0  0  0  0  0  0
   46.6129   55.0198   48.4321 C   0  0  0  0  0  0  0  0  0  0  0  0
   45.0525   58.3101   44.4774 C   0  0  0  0  0  0  0  0  0  0  0  0
   39.3680   65.4640   48.3403 N   0  0  0  0  0  0  0  0  0  0  0  0
   47.9089   54.3135   44.7275 O   0  0  0  0  0  0  0  0  0  0  0  0
   44.1932   56.9681   49.1439 O   0  0  0  0  0  0  0  0  0  0  0  0
   38.9819   64.4621   50.7485 O   0  0  0  0  0  0  0  0  0  0  0  0
   41.2367   64.3023   49.8025 O   0  0  0  0  0  0  0  0  0  0  0  0
   41.9735   56.4100   49.2332 O   0  0  0  0  0  0  0  0  0  0  0  0
   48.4378   56.1946   47.4499 O   0  0  0  0  0  0  0  0  0  0  0  0
   46.9157   54.4434   45.4925 C   0  0  0  0  0  0  0  0  0  0  0  0
   40.8848   59.6804   45.5341 C   0  0  0  0  0  0  0  0  0  0  0  0
   40.1334   62.5102   47.6147 C   0  0  0  0  0  0  0  0  0  0  0  0
   40.5724   60.0710   47.8799 C   0  0  0  0  0  0  0  0  0  0  0  0
   44.1779   55.4929   46.6538 N   0  0  0  0  0  0  0  0  0  0  0  0
   40.4359   61.0545   45.6929 N   0  0  0  0  0  0  0  0  0  0  0  0
   39.3760   62.6789   48.8444 N   0  0  0  0  0  0  0  0  0  0  0  0
   43.0708   59.3235   47.1280 S   0  0  0  0  0  0  0  0  0  0  0  0
   43.1489   56.6273   48.5277 C   0  0  0  0  0  0  0  0  0  0  0  0
   43.1574   56.4672   47.0362 C   0  0  1  0  0  0  0  0  0  0  0  0
   47.0476   56.0835   47.4351 C   0  0  1  0  0  0  0  0  0  0  0  0
   44.8591   57.6624   45.8351 C   0  0  2  0  0  0  0  0  0  0  0  0
   39.8862   61.1287   47.0375 C   0  0  2  0  0  0  0  0  0  0  0  0
   41.2743   59.1626   46.9019 C   0  0  2  0  0  0  0  0  0  0  0  0
   46.5605   55.8064   46.0040 C   0  0  2  0  0  0  0  0  0  0  0  0
   45.0949   56.1709   45.7374 C   0  0  1  0  0  0  0  0  0  0  0  0
   43.4206   57.7558   46.2512 C   0  0  2  0  0  0  0  0  0  0  0  0
   39.7682   64.2362   49.4887 S   0  0  0  0  0  0  0  0  0  0  0  0
  2  1  1  6
  2  3  1  0
  3  4  2  0
  5  2  1  0
  6 16  1  0
  6  5  1  0
  9 33  1  0
 10 16  2  0
 11 24  2  0
 12 33  2  0
 13 33  2  0
 14 24  1  0
 15 26  1  0
 17 21  1  0
 17 29  1  0
 18 22  1  0
 19 28  1  0
 19 29  1  0
 20 25  1  0
 31 20  1  6
 21 28  1  0
 22 33  1  0
 25 24  1  1
 25 32  1  0
 26  7  1  1
 26 30  1  0
 27  8  1  6
 27 31  1  0
 27 32  1  0
 28 18  1  1
 29 23  1  1
 30 16  1  1
 31 30  1  0
 32 23  1  1
M  END
>  <HEADER>  (1) 
    HYDROLASE/HYDROLASE INHIBITOR           19-AUG-09   3IQA              

>  <TITLE>  (1) 
    CRYSTAL STRUCTURE OF BLAC COVALENTLY BOUND WITH DORIPENEM             

>  <COMPND>  (1) 
    MOL_ID: 1;                                                            
   2 MOLECULE: BETA-LACTAMASE;                                            
   3 CHAIN: A;                                                            
   4 SYNONYM: PENICILLINASE;                                              
   5 EC: 3.5.2.6;                                                         
   6 ENGINEERED: YES                                                      

>  <SOURCE>  (1) 
    MOL_ID: 1;                                                            
   2 ORGANISM_SCIENTIFIC: MYCOBACTERIUM TUBERCULOSIS;                     
   3 ORGANISM_TAXID: 83332;                                               
   4 STRAIN: H37RV;                                                       
   5 GENE: BLAA, BLAC, MT2128, MTCY49.07C, RV2068C;                       
   6 EXPRESSION_SYSTEM: ESCHERICHIA COLI;                                 
   7 EXPRESSION_SYSTEM_TAXID: 562;                                        
   8 EXPRESSION_SYSTEM_STRAIN: ROSETTA2;                                  
   9 EXPRESSION_SYSTEM_VECTOR_TYPE: PLASMID;                              
  10 EXPRESSION_SYSTEM_PLASMID: PET28A                                    

>  <KEYWDS>  (1) 
    PENICILLIN BINDING PROTEIN, BETA-LACTAM COVALENT ADDUCT, ANTIBIOTIC   
   2 RESISTANCE, CELL MEMBRANE, HYDROLASE, LIPOPROTEIN, MEMBRANE,         
   3 PALMITATE, HYDROLASE-HYDROLASE INHIBITOR COMPLEX                     

>  <EXPDTA>  (1) 
    X-RAY DIFFRACTION                                                     

>  <AUTHOR>  (1) 
    L.W.TREMBLAY,J.S.BLANCHARD                                            

>  <REVDAT>  (1) 
   5   28-SEP-16 3IQA    1       HETSYN VERSN                             
   4   29-DEC-10 3IQA    1       FORMUL HETNAM                            
   3   12-MAY-10 3IQA    1       JRNL                                     
   2   21-APR-10 3IQA    1       JRNL                                     
   1   14-APR-10 3IQA    0                                                

>  <JRNL>  (1) 
      AUTH   L.W.TREMBLAY,F.FAN,J.S.BLANCHARD                             
      TITL   BIOCHEMICAL AND STRUCTURAL CHARACTERIZATION OF MYCOBACTERIUM 
      TITL 2 TUBERCULOSIS BETA-LACTAMASE WITH THE CARBAPENEMS ERTAPENEM   
      TITL 3 AND DORIPENEM.                                               
      REF    BIOCHEMISTRY                  V.  49  3766 2010              
      REFN                   ISSN 0006-2960                               
      PMID   20353175                                                     
      DOI    10.1021/BI100232Q                                            

>  <REMARK>  (1) 
   2                                                                      
   2 RESOLUTION.    2.20 ANGSTROMS.                                       
   3                                                                      
   3 REFINEMENT.                                                          
   3   PROGRAM     : REFMAC 5.2.0019                                      
   3   AUTHORS     : MURSHUDOV,VAGIN,DODSON                               
   3                                                                      
   3    REFINEMENT TARGET : MAXIMUM LIKELIHOOD                            
   3                                                                      
   3  DATA USED IN REFINEMENT.                                            
   3   RESOLUTION RANGE HIGH (ANGSTROMS) : 2.20                           
   3   RESOLUTION RANGE LOW  (ANGSTROMS) : 35.58                          
   3   DATA CUTOFF            (SIGMA(F)) : 0.000                          
   3   COMPLETENESS FOR RANGE        (%) : 100.0                          
   3   NUMBER OF REFLECTIONS             : 13653                          
   3                                                                      
   3  FIT TO DATA USED IN REFINEMENT.                                     
   3   CROSS-VALIDATION METHOD          : THROUGHOUT                      
   3   FREE R VALUE TEST SET SELECTION  : RANDOM                          
   3   R VALUE     (WORKING + TEST SET) : 0.163                           
   3   R VALUE            (WORKING SET) : 0.161                           
   3   FREE R VALUE                     : 0.205                           
   3   FREE R VALUE TEST SET SIZE   (%) : 5.000                           
   3   FREE R VALUE TEST SET COUNT      : 677                             
   3                                                                      
   3  FIT IN THE HIGHEST RESOLUTION BIN.                                  
   3   TOTAL NUMBER OF BINS USED           : 20                           
   3   BIN RESOLUTION RANGE HIGH       (A) : 2.20                         
   3   BIN RESOLUTION RANGE LOW        (A) : 2.26                         
   3   REFLECTION IN BIN     (WORKING SET) : 937                          
   3   BIN COMPLETENESS (WORKING+TEST) (%) : 100.00                       
   3   BIN R VALUE           (WORKING SET) : 0.1760                       
   3   BIN FREE R VALUE SET COUNT          : 44                           
   3   BIN FREE R VALUE                    : 0.2370                       
   3                                                                      
   3  NUMBER OF NON-HYDROGEN ATOMS USED IN REFINEMENT.                    
   3   PROTEIN ATOMS            : 1988                                    
   3   NUCLEIC ACID ATOMS       : 0                                       
   3   HETEROGEN ATOMS          : 37                                      
   3   SOLVENT ATOMS            : 218                                     
   3                                                                      
   3  B VALUES.                                                           
   3   FROM WILSON PLOT           (A**2) : 13.38                          
   3   MEAN B VALUE      (OVERALL, A**2) : 8.26                           
   3   OVERALL ANISOTROPIC B VALUE.                                       
   3    B11 (A**2) : -0.01000                                             
   3    B22 (A**2) : 0.01000                                              
   3    B33 (A**2) : 0.00000                                              
   3    B12 (A**2) : 0.00000                                              
   3    B13 (A**2) : 0.00000                                              
   3    B23 (A**2) : 0.00000                                              
   3                                                                      
   3  ESTIMATED OVERALL COORDINATE ERROR.                                 
   3   ESU BASED ON R VALUE                            (A): 0.271         
   3   ESU BASED ON FREE R VALUE                       (A): 0.192         
   3   ESU BASED ON MAXIMUM LIKELIHOOD                 (A): 0.122         
   3   ESU FOR B VALUES BASED ON MAXIMUM LIKELIHOOD (A**2): 4.770         
   3                                                                      
   3 CORRELATION COEFFICIENTS.                                            
   3   CORRELATION COEFFICIENT FO-FC      : 0.944                         
   3   CORRELATION COEFFICIENT FO-FC FREE : 0.898                         
   3                                                                      
   3  RMS DEVIATIONS FROM IDEAL VALUES        COUNT    RMS    WEIGHT      
   3   BOND LENGTHS REFINED ATOMS        (A):  2067 ; 0.010 ; 0.022       
   3   BOND LENGTHS OTHERS               (A):  NULL ;  NULL ;  NULL       
   3   BOND ANGLES REFINED ATOMS   (DEGREES):  2826 ; 1.204 ; 1.986       
   3   BOND ANGLES OTHERS          (DEGREES):  NULL ;  NULL ;  NULL       
   3   TORSION ANGLES, PERIOD 1    (DEGREES):   264 ; 5.981 ; 5.000       
   3   TORSION ANGLES, PERIOD 2    (DEGREES):    88 ;38.502 ;23.182       
   3   TORSION ANGLES, PERIOD 3    (DEGREES):   304 ;11.381 ;15.000       
   3   TORSION ANGLES, PERIOD 4    (DEGREES):    19 ;22.489 ;15.000       
   3   CHIRAL-CENTER RESTRAINTS       (A**3):   319 ; 0.076 ; 0.200       
   3   GENERAL PLANES REFINED ATOMS      (A):  1573 ; 0.004 ; 0.020       
   3   GENERAL PLANES OTHERS             (A):  NULL ;  NULL ;  NULL       
   3   NON-BONDED CONTACTS REFINED ATOMS (A):   925 ; 0.193 ; 0.200       
   3   NON-BONDED CONTACTS OTHERS        (A):  NULL ;  NULL ;  NULL       
   3   NON-BONDED TORSION REFINED ATOMS  (A):  1425 ; 0.291 ; 0.200       
   3   NON-BONDED TORSION OTHERS         (A):  NULL ;  NULL ;  NULL       
   3   H-BOND (X...Y) REFINED ATOMS      (A):   150 ; 0.118 ; 0.200       
   3   H-BOND (X...Y) OTHERS             (A):  NULL ;  NULL ;  NULL       
   3   POTENTIAL METAL-ION REFINED ATOMS (A):  NULL ;  NULL ;  NULL       
   3   POTENTIAL METAL-ION OTHERS        (A):  NULL ;  NULL ;  NULL       
   3   SYMMETRY VDW REFINED ATOMS        (A):    39 ; 0.205 ; 0.200       
   3   SYMMETRY VDW OTHERS               (A):  NULL ;  NULL ;  NULL       
   3   SYMMETRY H-BOND REFINED ATOMS     (A):    16 ; 0.124 ; 0.200       
   3   SYMMETRY H-BOND OTHERS            (A):  NULL ;  NULL ;  NULL       
   3   SYMMETRY METAL-ION REFINED ATOMS  (A):  NULL ;  NULL ;  NULL       
   3   SYMMETRY METAL-ION OTHERS         (A):  NULL ;  NULL ;  NULL       
   3                                                                      
   3  ISOTROPIC THERMAL FACTOR RESTRAINTS.     COUNT   RMS    WEIGHT      
   3   MAIN-CHAIN BOND REFINED ATOMS  (A**2):  1356 ; 0.461 ; 1.500       
   3   MAIN-CHAIN BOND OTHER ATOMS    (A**2):  NULL ;  NULL ;  NULL       
   3   MAIN-CHAIN ANGLE REFINED ATOMS (A**2):  2102 ; 0.781 ; 2.000       
   3   MAIN-CHAIN ANGLE OTHER ATOMS   (A**2):  NULL ;  NULL ;  NULL       
   3   SIDE-CHAIN BOND REFINED ATOMS  (A**2):   807 ; 1.311 ; 3.000       
   3   SIDE-CHAIN BOND OTHER ATOMS    (A**2):  NULL ;  NULL ;  NULL       
   3   SIDE-CHAIN ANGLE REFINED ATOMS (A**2):   724 ; 2.205 ; 4.500       
   3   SIDE-CHAIN ANGLE OTHER ATOMS   (A**2):  NULL ;  NULL ;  NULL       
   3   LONG RANGE B REFINED ATOMS     (A**2):  NULL ;  NULL ;  NULL       
   3   LONG RANGE B OTHER ATOMS       (A**2):  NULL ;  NULL ;  NULL       
   3                                                                      
   3 ANISOTROPIC THERMAL FACTOR RESTRAINTS.    COUNT   RMS   WEIGHT       
   3   RIGID-BOND RESTRAINTS          (A**2):  NULL ;  NULL ;  NULL       
   3   SPHERICITY; FREE ATOMS         (A**2):  NULL ;  NULL ;  NULL       
   3   SPHERICITY; BONDED ATOMS       (A**2):  NULL ;  NULL ;  NULL       
   3                                                                      
   3  NCS RESTRAINTS STATISTICS                                           
   3   NUMBER OF DIFFERENT NCS GROUPS : NULL                              
   3                                                                      
   3  TLS DETAILS                                                         
   3   NUMBER OF TLS GROUPS  : NULL                                       
   3                                                                      
   3  BULK SOLVENT MODELLING.                                             
   3   METHOD USED : MASK                                                 
   3   PARAMETERS FOR MASK CALCULATION                                    
   3   VDW PROBE RADIUS   : 1.20                                          
   3   ION PROBE RADIUS   : 0.80                                          
   3   SHRINKAGE RADIUS   : 0.80                                          
   3                                                                      
   3  OTHER REFINEMENT REMARKS: HYDROGENS HAVE BEEN ADDED IN THE RIDING   
   3  POSITIONS                                                           
   4                                                                      
   4 3IQA COMPLIES WITH FORMAT V. 3.30, 13-JUL-11                         
 100                                                                      
 100 THIS ENTRY HAS BEEN PROCESSED BY RCSB ON 20-AUG-09.                  
 100 THE RCSB ID CODE IS RCSB054730.                                      
 200                                                                      
 200 EXPERIMENTAL DETAILS                                                 
 200  EXPERIMENT TYPE                : X-RAY DIFFRACTION                  
 200  DATE OF DATA COLLECTION        : NULL                               
 200  TEMPERATURE           (KELVIN) : 100                                
 200  PH                             : 7.0                                
 200  NUMBER OF CRYSTALS USED        : 1                                  
 200                                                                      
 200  SYNCHROTRON              (Y/N) : Y                                  
 200  RADIATION SOURCE               : NSLS                               
 200  BEAMLINE                       : X12C                               
 200  X-RAY GENERATOR MODEL          : NULL                               
 200  MONOCHROMATIC OR LAUE    (M/L) : NULL                               
 200  WAVELENGTH OR RANGE        (A) : 1.000                              
 200  MONOCHROMATOR                  : SI(111) CHANNEL CUT                
 200  OPTICS                         : NULL                               
 200                                                                      
 200  DETECTOR TYPE                  : CCD                                
 200  DETECTOR MANUFACTURER          : ADSC QUANTUM 210                   
 200  INTENSITY-INTEGRATION SOFTWARE : MOSFLM                             
 200  DATA SCALING SOFTWARE          : SCALA                              
 200                                                                      
 200  NUMBER OF UNIQUE REFLECTIONS   : 13696                              
 200  RESOLUTION RANGE HIGH      (A) : 2.200                              
 200  RESOLUTION RANGE LOW       (A) : 50.000                             
 200  REJECTION CRITERIA  (SIGMA(I)) : 0.000                              
 200                                                                      
 200 OVERALL.                                                             
 200  COMPLETENESS FOR RANGE     (%) : 100.0                              
 200  DATA REDUNDANCY                : 7.600                              
 200  R MERGE                    (I) : 0.07700                            
 200  R SYM                      (I) : NULL                               
 200  <I/SIGMA(I)> FOR THE DATA SET  : 3.8000                             
 200                                                                      
 200 IN THE HIGHEST RESOLUTION SHELL.                                     
 200  HIGHEST RESOLUTION SHELL, RANGE HIGH (A) : 2.20                     
 200  HIGHEST RESOLUTION SHELL, RANGE LOW  (A) : 2.32                     
 200  COMPLETENESS FOR SHELL     (%) : 100.0                              
 200  DATA REDUNDANCY IN SHELL       : 7.40                               
 200  R MERGE FOR SHELL          (I) : 0.47000                            
 200  R SYM FOR SHELL            (I) : NULL                               
 200  <I/SIGMA(I)> FOR SHELL         : 1.600                              
 200                                                                      
 200 DIFFRACTION PROTOCOL: SINGLE WAVELENGTH                              
 200 METHOD USED TO DETERMINE THE STRUCTURE: MOLECULAR REPLACEMENT        
 200 SOFTWARE USED: AMORE                                                 
 200 STARTING MODEL: 3DWZ                                                 
 200                                                                      
 200 REMARK: NULL                                                         
 280                                                                      
 280 CRYSTAL                                                              
 280 SOLVENT CONTENT, VS   (%): 46.06                                     
 280 MATTHEWS COEFFICIENT, VM (ANGSTROMS**3/DA): 2.28                     
 280                                                                      
 280 CRYSTALLIZATION CONDITIONS: 0.1 M HEPES PH 7.5, 2 M NH4H2PO4,        
 280  VAPOR DIFFUSION, SITTING DROP, TEMPERATURE 298K                     
 290                                                                      
 290 CRYSTALLOGRAPHIC SYMMETRY                                            
 290 SYMMETRY OPERATORS FOR SPACE GROUP: P 21 21 21                       
 290                                                                      
 290      SYMOP   SYMMETRY                                                
 290     NNNMMM   OPERATOR                                                
 290       1555   X,Y,Z                                                   
 290       2555   -X+1/2,-Y,Z+1/2                                         
 290       3555   -X,Y+1/2,-Z+1/2                                         
 290       4555   X+1/2,-Y+1/2,-Z                                         
 290                                                                      
 290     WHERE NNN -> OPERATOR NUMBER                                     
 290           MMM -> TRANSLATION VECTOR                                  
 290                                                                      
 290 CRYSTALLOGRAPHIC SYMMETRY TRANSFORMATIONS                            
 290 THE FOLLOWING TRANSFORMATIONS OPERATE ON THE ATOM/HETATM             
 290 RECORDS IN THIS ENTRY TO PRODUCE CRYSTALLOGRAPHICALLY                
 290 RELATED MOLECULES.                                                   
 290   SMTRY1   1  1.000000  0.000000  0.000000        0.00000            
 290   SMTRY2   1  0.000000  1.000000  0.000000        0.00000            
 290   SMTRY3   1  0.000000  0.000000  1.000000        0.00000            
 290   SMTRY1   2 -1.000000  0.000000  0.000000       24.99450            
 290   SMTRY2   2  0.000000 -1.000000  0.000000        0.00000            
 290   SMTRY3   2  0.000000  0.000000  1.000000       37.89600            
 290   SMTRY1   3 -1.000000  0.000000  0.000000        0.00000            
 290   SMTRY2   3  0.000000  1.000000  0.000000       34.03400            
 290   SMTRY3   3  0.000000  0.000000 -1.000000       37.89600            
 290   SMTRY1   4  1.000000  0.000000  0.000000       24.99450            
 290   SMTRY2   4  0.000000 -1.000000  0.000000       34.03400            
 290   SMTRY3   4  0.000000  0.000000 -1.000000        0.00000            
 290                                                                      
 290 REMARK: NULL                                                         
 300                                                                      
 300 BIOMOLECULE: 1                                                       
 300 SEE REMARK 350 FOR THE AUTHOR PROVIDED AND/OR PROGRAM                
 300 GENERATED ASSEMBLY INFORMATION FOR THE STRUCTURE IN                  
 300 THIS ENTRY. THE REMARK MAY ALSO PROVIDE INFORMATION ON               
 300 BURIED SURFACE AREA.                                                 
 350                                                                      
 350 COORDINATES FOR A COMPLETE MULTIMER REPRESENTING THE KNOWN           
 350 BIOLOGICALLY SIGNIFICANT OLIGOMERIZATION STATE OF THE                
 350 MOLECULE CAN BE GENERATED BY APPLYING BIOMT TRANSFORMATIONS          
 350 GIVEN BELOW.  BOTH NON-CRYSTALLOGRAPHIC AND                          
 350 CRYSTALLOGRAPHIC OPERATIONS ARE GIVEN.                               
 350                                                                      
 350 BIOMOLECULE: 1                                                       
 350 SOFTWARE DETERMINED QUATERNARY STRUCTURE: MONOMERIC                  
 350 SOFTWARE USED: PISA                                                  
 350 APPLY THE FOLLOWING TO CHAINS: A                                     
 350   BIOMT1   1  1.000000  0.000000  0.000000        0.00000            
 350   BIOMT2   1  0.000000  1.000000  0.000000        0.00000            
 350   BIOMT3   1  0.000000  0.000000  1.000000        0.00000            
 500                                                                      
 500 GEOMETRY AND STEREOCHEMISTRY                                         
 500 SUBTOPIC: TORSION ANGLES                                             
 500                                                                      
 500 TORSION ANGLES OUTSIDE THE EXPECTED RAMACHANDRAN REGIONS:            
 500 (M=MODEL NUMBER; RES=RESIDUE NAME; C=CHAIN IDENTIFIER;               
 500 SSEQ=SEQUENCE NUMBER; I=INSERTION CODE).                             
 500                                                                      
 500 STANDARD TABLE:                                                      
 500 FORMAT:(10X,I3,1X,A3,1X,A1,I4,A1,4X,F7.2,3X,F7.2)                    
 500                                                                      
 500 EXPECTED VALUES: GJ KLEYWEGT AND TA JONES (1996). PHI/PSI-           
 500 CHOLOGY: RAMACHANDRAN REVISITED. STRUCTURE 4, 1395 - 1400            
 500                                                                      
 500  M RES CSSEQI        PSI       PHI                                   
 500    THR A  66     -158.38   -120.28                                   
 500    CYS A  83     -145.14     46.55                                   
 500    ARG A 236     -118.41   -117.91                                   
 500                                                                      
 500 REMARK: NULL                                                         
 600                                                                      
 600 HETEROGEN                                                            
 600 DORIPENEM BETA-LACTAM RING OPEN AND COVALENTLY BOUND TO AMBLER       
 600 NUMBERED RESIDUE SER70 (MTBLAC SER84) WITH ISOMERIZATION.            
 800                                                                      
 800 SITE                                                                 
 800 SITE_IDENTIFIER: AC1                                                 
 800 EVIDENCE_CODE: SOFTWARE                                              
 800 SITE_DESCRIPTION: BINDING SITE FOR RESIDUE PO4 A 1                   
 800                                                                      
 800 SITE_IDENTIFIER: AC2                                                 
 800 EVIDENCE_CODE: SOFTWARE                                              
 800 SITE_DESCRIPTION: BINDING SITE FOR RESIDUE PO4 A 308                 
 800                                                                      
 800 SITE_IDENTIFIER: AC3                                                 
 800 EVIDENCE_CODE: SOFTWARE                                              
 800 SITE_DESCRIPTION: BINDING SITE FOR RESIDUE DRW A 309                 

>  <DBREF>  (1) 
 3IQA A   43   307  UNP    P0C5C1   BLAC_MYCTU      43    307             

>  <SEQRES>  (1) 
   1 A  265  ASP LEU ALA ASP ARG PHE ALA GLU LEU GLU ARG ARG TYR          
   2 A  265  ASP ALA ARG LEU GLY VAL TYR VAL PRO ALA THR GLY THR          
   3 A  265  THR ALA ALA ILE GLU TYR ARG ALA ASP GLU ARG PHE ALA          
   4 A  265  PHE CYS SER THR PHE LYS ALA PRO LEU VAL ALA ALA VAL          
   5 A  265  LEU HIS GLN ASN PRO LEU THR HIS LEU ASP LYS LEU ILE          
   6 A  265  THR TYR THR SER ASP ASP ILE ARG SER ILE SER PRO VAL          
   7 A  265  ALA GLN GLN HIS VAL GLN THR GLY MET THR ILE GLY GLN          
   8 A  265  LEU CYS ASP ALA ALA ILE ARG TYR SER ASP GLY THR ALA          
   9 A  265  ALA ASN LEU LEU LEU ALA ASP LEU GLY GLY PRO GLY GLY          
  10 A  265  GLY THR ALA ALA PHE THR GLY TYR LEU ARG SER LEU GLY          
  11 A  265  ASP THR VAL SER ARG LEU ASP ALA GLU GLU PRO GLU LEU          
  12 A  265  ASN ARG ASP PRO PRO GLY ASP GLU ARG ASP THR THR THR          
  13 A  265  PRO HIS ALA ILE ALA LEU VAL LEU GLN GLN LEU VAL LEU          
  14 A  265  GLY ASN ALA LEU PRO PRO ASP LYS ARG ALA LEU LEU THR          
  15 A  265  ASP TRP MET ALA ARG ASN THR THR GLY ALA LYS ARG ILE          
  16 A  265  ARG ALA GLY PHE PRO ALA ASP TRP LYS VAL ILE ASP LYS          
  17 A  265  THR GLY THR GLY ASP TYR GLY ARG ALA ASN ASP ILE ALA          
  18 A  265  VAL VAL TRP SER PRO THR GLY VAL PRO TYR VAL VAL ALA          
  19 A  265  VAL MET SER ASP ARG ALA GLY GLY GLY TYR ASP ALA GLU          
  20 A  265  PRO ARG GLU ALA LEU LEU ALA GLU ALA ALA THR CYS VAL          
  21 A  265  ALA GLY VAL LEU ALA                                          

>  <HET>  (1) 
 PO4  A   1       5                                                       
 PO4  A 308       5                                                       
 DRW  A 309      27                                                       

>  <HETNAM>  (1) 
     PO4 PHOSPHATE ION                                                    
     DRW (2S,3R,4S)-2-[(2S,3R)-3-HYDROXY-1-OXOBUTAN-2-YL]-3-              
   2 DRW  METHYL-4-({(3S,5S)-5-[(SULFAMOYLAMINO)                          
   3 DRW  METHYL]PYRROLIDIN-3-YL}SULFANYL)-3,4-DIHYDRO-2H-                
   4 DRW  PYRROLE-5-CARBOXYLIC ACID                                       

>  <HETSYN>  (1) 
     DRW DORIPENEM(OPEN FORM, PYRROLINE TAUTOMER FORM 2, SP3              
   2 DRW  CONNECTION TO THIO AS S ISOMER)                                 

>  <FORMUL>  (1) 
   2  PO4    2(O4 P 3-)                                                   
   4  DRW    C15 H26 N4 O6 S2                                             
   5  HOH   *218(H2 O)                                                    

>  <HELIX>  (1) 
   1   1 ASP A   43  ASP A   56  1                                  14    
   2   2 CYS A   83  THR A   85  5                                   3    
   3   3 PHE A   86  ASN A   98  1                                  13    
   4   4 PRO A   99  ASP A  104  5                                   6    
   5   5 THR A  110  ILE A  114  5                                   5    
   6   6 ILE A  131  TYR A  141  1                                  11    
   7   7 ASP A  143  GLY A  155  1                                  13    
   8   8 GLY A  156  GLY A  159  5                                   4    
   9   9 GLY A  160  LEU A  171  1                                  12    
  10  10 PRO A  183  ARG A  187  5                                   5    
  11  11 THR A  198  LEU A  211  1                                  14    
  12  12 PRO A  216  ARG A  229  1                                  14    
  13  13 ARG A  236  PHE A  241  1                                   6    
  14  14 ARG A  281  GLY A  285  5                                   5    
  15  15 ARG A  291  ALA A  307  1                                  17    

>  <SHEET>  (1) 
   1   A 5 ILE A  72  TYR A  74  0                                        
   2   A 5 ARG A  58  VAL A  63 -1  N  VAL A  61   O  TYR A  74           
   3   A 5 PRO A 272  ASP A 280 -1  O  MET A 278   N  GLY A  60           
   4   A 5 ARG A 258  TRP A 266 -1  N  VAL A 265   O  TYR A 273           
   5   A 5 LYS A 246  GLY A 254 -1  N  GLY A 252   O  ASN A 260           
   1   B 2 PHE A  80  ALA A  81  0                                        
   2   B 2 THR A 196  THR A 197 -1  O  THR A 197   N  PHE A  80           
   1   C 2 LEU A 106  ILE A 107  0                                        
   2   C 2 MET A 129  THR A 130 -1  O  MET A 129   N  ILE A 107           

>  <LINK>  (1) 
       OG  SER A  84                 CAJ DRW A 309     1555   1555  1.27  

>  <CISPEP>  (1) 
   1 GLU A  182    PRO A  183          0        -3.33                     

>  <SITE>  (1) 
   1 AC1  6 ARG A  79  ARG A 187  GLU A 193  ASP A 255                    
   2 AC1  6 TYR A 286  HOH A 483                                          
   1 AC2  7 HOH A  10  HOH A  26  ARG A  75  GLU A  78                    
   2 AC2  7 GLU A 184  HOH A 400  HOH A 405                               
   1 AC3 10 CYS A  83  SER A  84  LYS A  87  ILE A 117                    
   2 AC3 10 SER A 142  GLU A 182  THR A 251  GLY A 252                    
   3 AC3 10 THR A 253  HOH A 321                                          

>  <ORIGX1>  (1) 
      1.000000  0.000000  0.000000        0.00000                         

>  <ORIGX2>  (1) 
      0.000000  1.000000  0.000000        0.00000                         

>  <ORIGX3>  (1) 
      0.000000  0.000000  1.000000        0.00000                         

>  <SCALE1>  (1) 
      0.020004  0.000000  0.000000        0.00000                         

>  <SCALE2>  (1) 
      0.000000  0.014691  0.000000        0.00000                         

>  <SCALE3>  (1) 
      0.000000  0.000000  0.013194        0.00000                         

>  <MASTER>  (1) 
      271    0    3   15    9    0    7    6 2243    1   38   21          

$$$$
