start_structures/Ligand_Substrate/Ligand_Complex_Stripped/5R7_5CTN.pdb
     RDKit          3D

 33 34  0  0  1  0  0  0  0  0999 V2000
   48.7999   51.8736   46.3378 N   0  0  0  0  0  0  0  0  0  0  0  0
   47.4482   51.3830   46.5435 C   0  0  2  0  0  0  0  0  0  0  0  0
   47.4040   49.8875   46.4395 C   0  0  0  0  0  0  0  0  0  0  0  0
   46.4745   49.2690   46.9370 O   0  0  0  0  0  0  0  0  0  0  0  0
   46.5141   52.0030   45.5103 C   0  0  0  0  0  0  0  0  0  0  0  0
   46.1594   53.3339   45.8719 O   0  0  0  0  0  0  0  0  0  0  0  0
   45.5828   58.0053   45.2979 C   0  0  0  0  0  0  0  0  0  0  0  0
   45.8051   57.0317   48.9508 C   0  0  0  0  0  0  0  0  0  0  0  0
   50.7171   50.2950   48.5487 N   0  0  0  0  0  0  0  0  0  0  0  0
   47.9436   54.2983   44.7647 O   0  0  0  0  0  0  0  0  0  0  0  0
   51.3049   58.6597   47.3985 O   0  0  0  0  0  0  0  0  0  0  0  0
   48.3032   50.2458   49.6240 O   0  0  0  0  0  0  0  0  0  0  0  0
   50.0789   48.9850   50.7457 O   0  0  0  0  0  0  0  0  0  0  0  0
   49.4542   59.2498   46.1827 O   0  0  0  0  0  0  0  0  0  0  0  0
   47.7032   57.2732   44.4734 O   0  0  0  0  0  0  0  0  0  0  0  0
   46.9313   54.4378   45.5056 C   0  0  0  0  0  0  0  0  0  0  0  0
   47.8745   55.2400   51.6280 C   0  0  0  0  0  0  0  0  0  0  0  0
   49.8807   52.8064   50.1891 C   0  0  0  0  0  0  0  0  0  0  0  0
   49.8141   55.2834   50.2624 C   0  0  0  0  0  0  0  0  0  0  0  0
   48.8258   56.4123   46.8702 N   0  0  0  0  0  0  0  0  0  0  0  0
   48.5634   53.9796   51.8676 N   0  0  0  0  0  0  0  0  0  0  0  0
   50.1164   51.6118   50.9834 N   0  0  0  0  0  0  0  0  0  0  0  0
   48.4159   57.6345   50.4344 S   0  0  0  0  0  0  0  0  0  0  0  0
   50.0922   58.4591   47.1310 C   0  0  0  0  0  0  0  0  0  0  0  0
   49.3490   57.3760   47.8367 C   0  0  0  0  0  0  0  0  0  0  0  0
   46.4519   56.8274   44.9020 C   0  0  1  0  0  0  0  0  0  0  0  0
   46.9394   57.3728   47.9948 C   0  0  2  0  0  0  0  0  0  0  0  0
   49.8046   54.0199   51.0978 C   0  0  1  0  0  0  0  0  0  0  0  0
   48.4104   55.8144   50.3431 C   0  0  2  0  0  0  0  0  0  0  0  0
   46.5632   55.7883   46.0318 C   0  0  2  0  0  0  0  0  0  0  0  0
   47.4375   56.1616   47.2436 C   0  0  1  0  0  0  0  0  0  0  0  0
   48.1907   57.9545   48.6351 C   0  0  1  0  0  0  0  0  0  0  0  0
   49.7614   50.2423   49.9876 S   0  0  0  0  0  0  0  0  0  0  0  0
  2  1  1  6
  2  3  1  0
  3  4  2  0
  5  2  1  0
  6 16  1  0
  6  5  1  0
  9 33  1  0
 10 16  2  0
 11 24  2  0
 12 33  2  0
 13 33  2  0
 14 24  1  0
 15 26  1  0
 17 21  1  0
 17 29  1  0
 18 22  1  0
 19 28  1  0
 19 29  1  0
 20 25  1  0
 31 20  1  1
 21 28  1  0
 22 33  1  0
 25 24  1  0
 25 32  1  0
 26  7  1  1
 26 30  1  0
 27  8  1  1
 27 31  1  0
 27 32  1  0
 28 18  1  1
 29 23  1  1
 30 16  1  6
 31 30  1  0
 32 23  1  1
M  END
>  <HEADER>  (1) 
    HYDROLASE                               24-JUL-15   5CTN              

>  <TITLE>  (1) 
    STRUCTURE OF BPU1 BETA-LACTAMASE                                      

>  <COMPND>  (1) 
    MOL_ID: 1;                                                            
   2 MOLECULE: BETA-LACTAMASE;                                            
   3 CHAIN: A, B;                                                         
   4 EC: 3.5.2.6;                                                         
   5 ENGINEERED: YES                                                      

>  <SOURCE>  (1) 
    MOL_ID: 1;                                                            
   2 ORGANISM_SCIENTIFIC: BACILLUS PUMILUS;                               
   3 ORGANISM_TAXID: 1408;                                                
   4 GENE: BPUM_2340;                                                     
   5 EXPRESSION_SYSTEM: ESCHERICHIA COLI;                                 
   6 EXPRESSION_SYSTEM_TAXID: 562                                         

>  <KEYWDS>  (1) 
    HYDROLASE, BETA-LACTAMASE                                             

>  <EXPDTA>  (1) 
    X-RAY DIFFRACTION                                                     

>  <AUTHOR>  (1) 
    C.A.SMITH,S.B.VAKULENKO                                               

>  <REVDAT>  (1) 
   3   05-OCT-16 5CTN    1       HETSYN                                   
   2   30-DEC-15 5CTN    1       JRNL                                     
   1   25-NOV-15 5CTN    0                                                

>  <JRNL>  (1) 
      AUTH   M.TOTH,N.T.ANTUNES,N.K.STEWART,H.FRASE,M.BHATTACHARYA,       
      AUTH 2 C.A.SMITH,S.B.VAKULENKO                                      
      TITL   CLASS D BETA-LACTAMASES DO EXIST IN GRAM-POSITIVE BACTERIA.  
      REF    NAT.CHEM.BIOL.                V.  12     9 2016              
      REFN                   ESSN 1552-4469                               
      PMID   26551395                                                     
      DOI    10.1038/NCHEMBIO.1950                                        

>  <REMARK>  (1) 
   2                                                                      
   2 RESOLUTION.    1.35 ANGSTROMS.                                       
   3                                                                      
   3 REFINEMENT.                                                          
   3   PROGRAM     : PHENIX (PHENIX.REFINE: 1.9_1692)                     
   3   AUTHORS     : PAUL ADAMS,PAVEL AFONINE,VINCENT CHEN,IAN            
   3               : DAVIS,KRESHNA GOPAL,RALF GROSSE-KUNSTLEVE,           
   3               : LI-WEI HUNG,ROBERT IMMORMINO,TOM IOERGER,            
   3               : AIRLIE MCCOY,ERIK MCKEE,NIGEL MORIARTY,              
   3               : REETAL PAI,RANDY READ,JANE RICHARDSON,               
   3               : DAVID RICHARDSON,TOD ROMO,JIM SACCHETTINI,           
   3               : NICHOLAS SAUTER,JACOB SMITH,LAURENT                  
   3               : STORONI,TOM TERWILLIGER,PETER ZWART                  
   3                                                                      
   3    REFINEMENT TARGET : ML                                            
   3                                                                      
   3  DATA USED IN REFINEMENT.                                            
   3   RESOLUTION RANGE HIGH (ANGSTROMS) : 1.35                           
   3   RESOLUTION RANGE LOW  (ANGSTROMS) : 37.57                          
   3   MIN(FOBS/SIGMA_FOBS)              : 1.340                          
   3   COMPLETENESS FOR RANGE        (%) : 97.6                           
   3   NUMBER OF REFLECTIONS             : 104322                         
   3                                                                      
   3  FIT TO DATA USED IN REFINEMENT.                                     
   3   R VALUE     (WORKING + TEST SET) : 0.161                           
   3   R VALUE            (WORKING SET) : 0.160                           
   3   FREE R VALUE                     : 0.187                           
   3   FREE R VALUE TEST SET SIZE   (%) : 4.980                           
   3   FREE R VALUE TEST SET COUNT      : 5194                            
   3                                                                      
   3  FIT TO DATA USED IN REFINEMENT (IN BINS).                           
   3   BIN  RESOLUTION RANGE  COMPL.    NWORK NFREE   RWORK  RFREE        
   3     1 37.5830 -  4.1930    0.98     3409   180  0.1448 0.1602        
   3     2  4.1930 -  3.3288    0.99     3356   199  0.1451 0.1653        
   3     3  3.3288 -  2.9082    0.96     3254   191  0.1599 0.1784        
   3     4  2.9082 -  2.6424    0.99     3365   160  0.1662 0.1951        
   3     5  2.6424 -  2.4530    0.99     3337   198  0.1625 0.1789        
   3     6  2.4530 -  2.3084    0.99     3371   168  0.1605 0.1936        
   3     7  2.3084 -  2.1928    0.99     3364   192  0.1545 0.1652        
   3     8  2.1928 -  2.0974    0.95     3200   178  0.1503 0.1766        
   3     9  2.0974 -  2.0166    0.97     3342   137  0.1506 0.1978        
   3    10  2.0166 -  1.9470    0.99     3343   172  0.1453 0.2041        
   3    11  1.9470 -  1.8862    0.98     3371   146  0.1540 0.1843        
   3    12  1.8862 -  1.8323    0.98     3318   170  0.1531 0.2002        
   3    13  1.8323 -  1.7840    0.99     3344   184  0.1490 0.1934        
   3    14  1.7840 -  1.7405    0.98     3355   160  0.1470 0.2007        
   3    15  1.7405 -  1.7009    0.98     3322   171  0.1432 0.1720        
   3    16  1.7009 -  1.6647    0.96     3219   158  0.1470 0.1927        
   3    17  1.6647 -  1.6314    0.97     3324   153  0.1507 0.1931        
   3    18  1.6314 -  1.6006    0.97     3260   186  0.1571 0.1787        
   3    19  1.6006 -  1.5721    0.98     3309   191  0.1643 0.2045        
   3    20  1.5721 -  1.5454    0.98     3304   174  0.1669 0.1939        
   3    21  1.5454 -  1.5205    0.98     3333   184  0.1734 0.2018        
   3    22  1.5205 -  1.4971    0.99     3301   174  0.1717 0.2052        
   3    23  1.4971 -  1.4751    0.99     3298   209  0.1875 0.2494        
   3    24  1.4751 -  1.4543    0.99     3340   165  0.1984 0.2751        
   3    25  1.4543 -  1.4346    0.98     3332   165  0.2132 0.2518        
   3    26  1.4346 -  1.4160    0.95     3184   175  0.2377 0.2795        
   3    27  1.4160 -  1.3983    0.96     3248   163  0.2493 0.2461        
   3    28  1.3983 -  1.3815    0.97     3297   152  0.2641 0.3223        
   3    29  1.3815 -  1.3654    0.97     3291   178  0.2783 0.3362        
   3    30  1.3654 -  1.3500    0.90     3037   161  0.2985 0.3413        
   3                                                                      
   3  BULK SOLVENT MODELLING.                                             
   3   METHOD USED        : FLAT BULK SOLVENT MODEL                       
   3   SOLVENT RADIUS     : 1.11                                          
   3   SHRINKAGE RADIUS   : 0.90                                          
   3   K_SOL              : NULL                                          
   3   B_SOL              : NULL                                          
   3                                                                      
   3  ERROR ESTIMATES.                                                    
   3   COORDINATE ERROR (MAXIMUM-LIKELIHOOD BASED)     : 0.140            
   3   PHASE ERROR (DEGREES, MAXIMUM-LIKELIHOOD BASED) : 21.190           
   3                                                                      
   3  B VALUES.                                                           
   3   FROM WILSON PLOT           (A**2) : NULL                           
   3   MEAN B VALUE      (OVERALL, A**2) : 26.25                          
   3   OVERALL ANISOTROPIC B VALUE.                                       
   3    B11 (A**2) : NULL                                                 
   3    B22 (A**2) : NULL                                                 
   3    B33 (A**2) : NULL                                                 
   3    B12 (A**2) : NULL                                                 
   3    B13 (A**2) : NULL                                                 
   3    B23 (A**2) : NULL                                                 
   3                                                                      
   3  TWINNING INFORMATION.                                               
   3   FRACTION: NULL                                                     
   3   OPERATOR: NULL                                                     
   3                                                                      
   3  DEVIATIONS FROM IDEAL VALUES.                                       
   3                 RMSD          COUNT                                  
   3   BOND      :  0.006           4113                                  
   3   ANGLE     :  1.115           5564                                  
   3   CHIRALITY :  0.044            581                                  
   3   PLANARITY :  0.005            700                                  
   3   DIHEDRAL  : 13.685           1582                                  
   3                                                                      
   3  TLS DETAILS                                                         
   3   NUMBER OF TLS GROUPS  : NULL                                       
   3                                                                      
   3  NCS DETAILS                                                         
   3   NUMBER OF NCS GROUPS : NULL                                        
   3                                                                      
   3  OTHER REFINEMENT REMARKS: NULL                                      
   4                                                                      
   4 5CTN COMPLIES WITH FORMAT V. 3.30, 13-JUL-11                         
 100                                                                      
 100 THIS ENTRY HAS BEEN PROCESSED BY RCSB ON 28-JUL-15.                  
 100 THE DEPOSITION ID IS D_1000212174.                                   
 200                                                                      
 200 EXPERIMENTAL DETAILS                                                 
 200  EXPERIMENT TYPE                : X-RAY DIFFRACTION                  
 200  DATE OF DATA COLLECTION        : 13-MAR-13                          
 200  TEMPERATURE           (KELVIN) : 100                                
 200  PH                             : NULL                               
 200  NUMBER OF CRYSTALS USED        : 1                                  
 200                                                                      
 200  SYNCHROTRON              (Y/N) : Y                                  
 200  RADIATION SOURCE               : SSRL                               
 200  BEAMLINE                       : BL12-2                             
 200  X-RAY GENERATOR MODEL          : NULL                               
 200  MONOCHROMATIC OR LAUE    (M/L) : M                                  
 200  WAVELENGTH OR RANGE        (A) : 0.9795                             
 200  MONOCHROMATOR                  : NULL                               
 200  OPTICS                         : NULL                               
 200                                                                      
 200  DETECTOR TYPE                  : PIXEL                              
 200  DETECTOR MANUFACTURER          : DECTRIS PILATUS 6M                 
 200  INTENSITY-INTEGRATION SOFTWARE : XDS                                
 200  DATA SCALING SOFTWARE          : AIMLESS                            
 200                                                                      
 200  NUMBER OF UNIQUE REFLECTIONS   : 104369                             
 200  RESOLUTION RANGE HIGH      (A) : 1.350                              
 200  RESOLUTION RANGE LOW       (A) : 37.600                             
 200  REJECTION CRITERIA  (SIGMA(I)) : NULL                               
 200                                                                      
 200 OVERALL.                                                             
 200  COMPLETENESS FOR RANGE     (%) : 97.6                               
 200  DATA REDUNDANCY                : 4.000                              
 200  R MERGE                    (I) : NULL                               
 200  R SYM                      (I) : NULL                               
 200  <I/SIGMA(I)> FOR THE DATA SET  : 19.8500                            
 200                                                                      
 200 IN THE HIGHEST RESOLUTION SHELL.                                     
 200  HIGHEST RESOLUTION SHELL, RANGE HIGH (A) : 1.35                     
 200  HIGHEST RESOLUTION SHELL, RANGE LOW  (A) : 1.40                     
 200  COMPLETENESS FOR SHELL     (%) : 94.3                               
 200  DATA REDUNDANCY IN SHELL       : NULL                               
 200  R MERGE FOR SHELL          (I) : 0.70500                            
 200  R SYM FOR SHELL            (I) : NULL                               
 200  <I/SIGMA(I)> FOR SHELL         : 2.180                              
 200                                                                      
 200 DIFFRACTION PROTOCOL: SINGLE WAVELENGTH                              
 200 METHOD USED TO DETERMINE THE STRUCTURE: MOLECULAR REPLACEMENT        
 200 SOFTWARE USED: MOLREP                                                
 200 STARTING MODEL: NULL                                                 
 200                                                                      
 200 REMARK: NULL                                                         
 280                                                                      
 280 CRYSTAL                                                              
 280 SOLVENT CONTENT, VS   (%): 45.83                                     
 280 MATTHEWS COEFFICIENT, VM (ANGSTROMS**3/DA): 2.27                     
 280                                                                      
 280 CRYSTALLIZATION CONDITIONS: 2% TACSIMATE, 0.1 M SODIUM CITRATE PH    
 280  5.6, 16% PEG 3,350, VAPOR DIFFUSION, SITTING DROP, TEMPERATURE      
 280  298K                                                                
 290                                                                      
 290 CRYSTALLOGRAPHIC SYMMETRY                                            
 290 SYMMETRY OPERATORS FOR SPACE GROUP: P 1 21 1                         
 290                                                                      
 290      SYMOP   SYMMETRY                                                
 290     NNNMMM   OPERATOR                                                
 290       1555   X,Y,Z                                                   
 290       2555   -X,Y+1/2,-Z                                             
 290                                                                      
 290     WHERE NNN -> OPERATOR NUMBER                                     
 290           MMM -> TRANSLATION VECTOR                                  
 290                                                                      
 290 CRYSTALLOGRAPHIC SYMMETRY TRANSFORMATIONS                            
 290 THE FOLLOWING TRANSFORMATIONS OPERATE ON THE ATOM/HETATM             
 290 RECORDS IN THIS ENTRY TO PRODUCE CRYSTALLOGRAPHICALLY                
 290 RELATED MOLECULES.                                                   
 290   SMTRY1   1  1.000000  0.000000  0.000000        0.00000            
 290   SMTRY2   1  0.000000  1.000000  0.000000        0.00000            
 290   SMTRY3   1  0.000000  0.000000  1.000000        0.00000            
 290   SMTRY1   2 -1.000000  0.000000  0.000000        0.00000            
 290   SMTRY2   2  0.000000  1.000000  0.000000       40.00100            
 290   SMTRY3   2  0.000000  0.000000 -1.000000        0.00000            
 290                                                                      
 290 REMARK: NULL                                                         
 300                                                                      
 300 BIOMOLECULE: 1, 2                                                    
 300 SEE REMARK 350 FOR THE AUTHOR PROVIDED AND/OR PROGRAM                
 300 GENERATED ASSEMBLY INFORMATION FOR THE STRUCTURE IN                  
 300 THIS ENTRY. THE REMARK MAY ALSO PROVIDE INFORMATION ON               
 300 BURIED SURFACE AREA.                                                 
 350                                                                      
 350 COORDINATES FOR A COMPLETE MULTIMER REPRESENTING THE KNOWN           
 350 BIOLOGICALLY SIGNIFICANT OLIGOMERIZATION STATE OF THE                
 350 MOLECULE CAN BE GENERATED BY APPLYING BIOMT TRANSFORMATIONS          
 350 GIVEN BELOW.  BOTH NON-CRYSTALLOGRAPHIC AND                          
 350 CRYSTALLOGRAPHIC OPERATIONS ARE GIVEN.                               
 350                                                                      
 350 BIOMOLECULE: 1                                                       
 350 AUTHOR DETERMINED BIOLOGICAL UNIT: MONOMERIC                         
 350 SOFTWARE DETERMINED QUATERNARY STRUCTURE: MONOMERIC                  
 350 SOFTWARE USED: PISA                                                  
 350 APPLY THE FOLLOWING TO CHAINS: A                                     
 350   BIOMT1   1  1.000000  0.000000  0.000000        0.00000            
 350   BIOMT2   1  0.000000  1.000000  0.000000        0.00000            
 350   BIOMT3   1  0.000000  0.000000  1.000000        0.00000            
 350                                                                      
 350 BIOMOLECULE: 2                                                       
 350 AUTHOR DETERMINED BIOLOGICAL UNIT: MONOMERIC                         
 350 SOFTWARE DETERMINED QUATERNARY STRUCTURE: MONOMERIC                  
 350 SOFTWARE USED: PISA                                                  
 350 APPLY THE FOLLOWING TO CHAINS: B                                     
 350   BIOMT1   1  1.000000  0.000000  0.000000        0.00000            
 350   BIOMT2   1  0.000000  1.000000  0.000000        0.00000            
 350   BIOMT3   1  0.000000  0.000000  1.000000        0.00000            
 465                                                                      
 465 MISSING RESIDUES                                                     
 465 THE FOLLOWING RESIDUES WERE NOT LOCATED IN THE                       
 465 EXPERIMENT. (M=MODEL NUMBER; RES=RESIDUE NAME; C=CHAIN               
 465 IDENTIFIER; SSSEQ=SEQUENCE NUMBER; I=INSERTION CODE.)                
 465                                                                      
 465   M RES C SSSEQI                                                     
 465     VAL B   291                                                      
 500                                                                      
 500 GEOMETRY AND STEREOCHEMISTRY                                         
 500 SUBTOPIC: CLOSE CONTACTS IN SAME ASYMMETRIC UNIT                     
 500                                                                      
 500 THE FOLLOWING ATOMS ARE IN CLOSE CONTACT.                            
 500                                                                      
 500  ATM1  RES C  SSEQI   ATM2  RES C  SSEQI           DISTANCE          
 500   OG   SER B   101     OAD  5R7 B   300              2.11            
 500                                                                      
 500 REMARK: NULL                                                         
 500                                                                      
 500 GEOMETRY AND STEREOCHEMISTRY                                         
 500 SUBTOPIC: TORSION ANGLES                                             
 500                                                                      
 500 TORSION ANGLES OUTSIDE THE EXPECTED RAMACHANDRAN REGIONS:            
 500 (M=MODEL NUMBER; RES=RESIDUE NAME; C=CHAIN IDENTIFIER;               
 500 SSEQ=SEQUENCE NUMBER; I=INSERTION CODE).                             
 500                                                                      
 500 STANDARD TABLE:                                                      
 500 FORMAT:(10X,I3,1X,A3,1X,A1,I4,A1,4X,F7.2,3X,F7.2)                    
 500                                                                      
 500 EXPECTED VALUES: GJ KLEYWEGT AND TA JONES (1996). PHI/PSI-           
 500 CHOLOGY: RAMACHANDRAN REVISITED. STRUCTURE 4, 1395 - 1400            
 500                                                                      
 500  M RES CSSEQI        PSI       PHI                                   
 500    ASN A  89       74.91     64.30                                   
 500    GLN A 100     -141.61     52.82                                   
 500    ASP A 119     -175.96   -172.69                                   
 500    ASN A 137       55.69    -90.81                                   
 500    SER A 191     -146.48   -134.45                                   
 500    PRO A 213       37.54    -79.31                                   
 500    GLU A 256     -125.05     53.55                                   
 500    ASN B  89       75.04     64.79                                   
 500    GLN B 100     -140.56     51.83                                   
 500    ASP B 119     -172.97   -174.87                                   
 500    SER B 191     -139.37   -130.96                                   
 500    PRO B 213       36.59    -79.55                                   
 500    GLU B 256     -110.36     36.49                                   
 500                                                                      
 500 REMARK: NULL                                                         
 800                                                                      
 800 SITE                                                                 
 800 SITE_IDENTIFIER: AC1                                                 
 800 EVIDENCE_CODE: SOFTWARE                                              
 800 SITE_DESCRIPTION: binding site for residue 5R7 A 301                 
 800                                                                      
 800 SITE_IDENTIFIER: AC2                                                 
 800 EVIDENCE_CODE: SOFTWARE                                              
 800 SITE_DESCRIPTION: binding site for residue FLC A 302                 
 800                                                                      
 800 SITE_IDENTIFIER: AC3                                                 
 800 EVIDENCE_CODE: SOFTWARE                                              
 800 SITE_DESCRIPTION: binding site for Di-peptide 5R7 B 300 and SER B    
 800  101                                                                 
 900                                                                      
 900 RELATED ENTRIES                                                      
 900 RELATED ID: 5CTM   RELATED DB: PDB                                   

>  <DBREF>  (1) 
 5CTN A   59   291  UNP    A8FFI9   A8FFI9_BACP2    59    291             
 5CTN B   59   291  UNP    A8FFI9   A8FFI9_BACP2    59    291             

>  <SEQRES>  (1) 
   1 A  233  SER ILE ALA TRP SER VAL ASP GLU PHE PHE LYS ASN ARG          
   2 A  233  GLU GLY THR PHE VAL ILE GLN GLU VAL LYS GLU LYS SER          
   3 A  233  PRO TRP VAL TYR ASN LYS LYS ARG ALA LYS GLU ARG PHE          
   4 A  233  ALA PRO GLN SER THR PHE LYS VAL ALA ASN ALA LEU ILE          
   5 A  233  GLY LEU GLN THR GLY ALA VAL ARG ASP GLU TYR ASP ILE          
   6 A  233  LYS TYR TRP ASP GLY VAL LYS ARG GLU ILE ASP ASN TRP          
   7 A  233  ASN ARG ASP HIS THR LEU GLY SER GLY MET ARG ASP SER          
   8 A  233  VAL VAL TRP TYR TYR GLN ALA MET ALA ARG ASP ILE GLY          
   9 A  233  GLU GLU ARG MET ASN HIS TRP VAL LYS ALA ILE HIS TYR          
  10 A  233  GLY ASN LYS ASP ILE SER GLY GLY ILE ASP GLN PHE TRP          
  11 A  233  LEU SER SER THR LEU ARG ILE SER PRO ILE GLU GLN VAL          
  12 A  233  ARG PHE LEU LYS GLN LEU TYR GLU GLU THR LEU PRO PHE          
  13 A  233  ASP LEU LYS ASN MET ARG THR VAL LYS ARG MET MET VAL          
  14 A  233  GLN GLU GLU GLU LYS HIS ALA THR LEU TYR GLY LYS THR          
  15 A  233  GLY SER GLY SER ASP ILE GLY TRP TYR VAL GLY PHE ILE          
  16 A  233  LYS HIS GLU HIS LYS THR TYR ILE LEU ALA THR ASN ILE          
  17 A  233  LYS GLY THR GLY ILE GLU ALA LYS ASP ILE THR TYR ARG          
  18 A  233  ILE LEU LYS LYS TYR HIS LEU MET GLU ALA SER VAL              
   1 B  233  SER ILE ALA TRP SER VAL ASP GLU PHE PHE LYS ASN ARG          
   2 B  233  GLU GLY THR PHE VAL ILE GLN GLU VAL LYS GLU LYS SER          
   3 B  233  PRO TRP VAL TYR ASN LYS LYS ARG ALA LYS GLU ARG PHE          
   4 B  233  ALA PRO GLN SER THR PHE LYS VAL ALA ASN ALA LEU ILE          
   5 B  233  GLY LEU GLN THR GLY ALA VAL ARG ASP GLU TYR ASP ILE          
   6 B  233  LYS TYR TRP ASP GLY VAL LYS ARG GLU ILE ASP ASN TRP          
   7 B  233  ASN ARG ASP HIS THR LEU GLY SER GLY MET ARG ASP SER          
   8 B  233  VAL VAL TRP TYR TYR GLN ALA MET ALA ARG ASP ILE GLY          
   9 B  233  GLU GLU ARG MET ASN HIS TRP VAL LYS ALA ILE HIS TYR          
  10 B  233  GLY ASN LYS ASP ILE SER GLY GLY ILE ASP GLN PHE TRP          
  11 B  233  LEU SER SER THR LEU ARG ILE SER PRO ILE GLU GLN VAL          
  12 B  233  ARG PHE LEU LYS GLN LEU TYR GLU GLU THR LEU PRO PHE          
  13 B  233  ASP LEU LYS ASN MET ARG THR VAL LYS ARG MET MET VAL          
  14 B  233  GLN GLU GLU GLU LYS HIS ALA THR LEU TYR GLY LYS THR          
  15 B  233  GLY SER GLY SER ASP ILE GLY TRP TYR VAL GLY PHE ILE          
  16 B  233  LYS HIS GLU HIS LYS THR TYR ILE LEU ALA THR ASN ILE          
  17 B  233  LYS GLY THR GLY ILE GLU ALA LYS ASP ILE THR TYR ARG          
  18 B  233  ILE LEU LYS LYS TYR HIS LEU MET GLU ALA SER VAL              

>  <HET>  (1) 
 5R7  A 301      27                                                       
 FLC  A 302      13                                                       
 5R7  B 300      27                                                       

>  <HETNAM>  (1) 
     5R7 (2~{S},3~{R})-3-METHYL-2-[(2~{S},3~{R})-3-OXIDANYL-1-            
   2 5R7  OXIDANYLIDENE-BUTAN-2-YL]-4-[(3~{S},5~{S})-5-                   
   3 5R7  [(SULFAMOYLAMINO)METHYL]PYRROLIDIN-3-YL]SULFANYL-3,4-           
   4 5R7  DIHYDRO-2~{H}-PYRROLE-5-CARBOXYLIC ACID                         
     FLC CITRATE ANION                                                    

>  <HETSYN>  (1) 
     5R7 DORIPENEM(OPEN FORM, PYRROLINE TAUTOMER FORM 3, SP3              
   2 5R7  CONNECTION TO THIO AS R ISOMER)                                 

>  <FORMUL>  (1) 
   3  5R7    2(C15 H26 N4 O6 S2)                                          
   4  FLC    C6 H5 O7 3-                                                  
   6  HOH   *419(H2 O)                                                    

>  <HELIX>  (1) 
   1 AA1 VAL A   64  PHE A   68  5                                   5    
   2 AA2 ASN A   89  LYS A   94  1                                   6    
   3 AA3 PRO A   99  THR A  102  5                                   4    
   4 AA4 PHE A  103  THR A  114  1                                  12    
   5 AA5 ILE A  133  ASN A  137  5                                   5    
   6 AA6 LEU A  142  ASP A  148  1                                   7    
   7 AA7 VAL A  150  ILE A  173  1                                  24    
   8 AA8 SER A  196  GLU A  209  1                                  14    
   9 AA9 ASP A  215  MET A  226  1                                  12    
  10 AB1 THR A  269  TYR A  284  1                                  16    
  11 AB2 VAL B   64  PHE B   68  5                                   5    
  12 AB3 ASN B   89  LYS B   94  1                                   6    
  13 AB4 PRO B   99  THR B  102  5                                   4    
  14 AB5 PHE B  103  THR B  114  1                                  12    
  15 AB6 ILE B  133  ASN B  137  5                                   5    
  16 AB7 LEU B  142  ASP B  148  1                                   7    
  17 AB8 VAL B  150  GLY B  162  1                                  13    
  18 AB9 GLY B  162  ILE B  173  1                                  12    
  19 AC1 SER B  196  GLU B  209  1                                  14    
  20 AC2 ASP B  215  MET B  226  1                                  12    
  21 AC3 THR B  269  TYR B  284  1                                  16    

>  <SHEET>  (1) 
   1 AA1 6 TRP A  86  TYR A  88  0                                        
   2 AA1 6 GLY A  73  GLU A  79 -1  N  ILE A  77   O  TRP A  86           
   3 AA1 6 LYS A 258  LYS A 267 -1  O  ILE A 261   N  GLN A  78           
   4 AA1 6 ILE A 246  HIS A 255 -1  N  GLY A 251   O  LEU A 262           
   5 AA1 6 ALA A 234  GLY A 241 -1  N  GLY A 241   O  TRP A 248           
   6 AA1 6 VAL A 227  GLU A 231 -1  N  GLN A 228   O  LEU A 236           
   1 AA2 2 ILE A 123  LYS A 124  0                                        
   2 AA2 2 HIS A 140  THR A 141 -1  O  HIS A 140   N  LYS A 124           
   1 AA3 6 TRP B  86  TYR B  88  0                                        
   2 AA3 6 GLY B  73  GLU B  79 -1  N  ILE B  77   O  TRP B  86           
   3 AA3 6 LYS B 258  LYS B 267 -1  O  ILE B 261   N  GLN B  78           
   4 AA3 6 ILE B 246  HIS B 255 -1  N  HIS B 255   O  LYS B 258           
   5 AA3 6 ALA B 234  GLY B 241 -1  N  TYR B 237   O  PHE B 252           
   6 AA3 6 VAL B 227  GLU B 231 -1  N  GLN B 228   O  LEU B 236           
   1 AA4 2 ILE B 123  LYS B 124  0                                        
   2 AA4 2 HIS B 140  THR B 141 -1  O  HIS B 140   N  LYS B 124           

>  <LINK>  (1) 
       OG  SER A 101                 CAJ 5R7 A 301     1555   1555  1.43  
       OG  SER B 101                 CAJ 5R7 B 300     1555   1555  1.45  

>  <SITE>  (1) 
   1 AC1 11 GLN A 100  SER A 101  TRP A 136  SER A 149                    
   2 AC1 11 VAL A 151  GLY A 241  SER A 242  THR A 269                    
   3 AC1 11 HOH A 439  HOH A 469  HOH A 485                               
   1 AC2  8 HIS A 168  ALA A 172  HIS A 285  HOH A 414                    
   2 AC2  8 HOH A 441  HOH A 495  HOH A 520  HOH A 539                    
   1 AC3 15 PRO B  99  GLN B 100  THR B 102  PHE B 103                    
   2 AC3 15 LYS B 104  GLU B 132  TRP B 136  SER B 149                    
   3 AC3 15 VAL B 151  LEU B 189  LYS B 239  THR B 240                    
   4 AC3 15 GLY B 241  SER B 242  HOH B 404                               

>  <ORIGX1>  (1) 
      1.000000  0.000000  0.000000        0.00000                         

>  <ORIGX2>  (1) 
      0.000000  1.000000  0.000000        0.00000                         

>  <ORIGX3>  (1) 
      0.000000  0.000000  1.000000        0.00000                         

>  <SCALE1>  (1) 
      0.020920  0.000000  0.001043        0.00000                         

>  <SCALE2>  (1) 
      0.000000  0.012500  0.000000        0.00000                         

>  <SCALE3>  (1) 
      0.000000  0.000000  0.015416        0.00000                         

>  <ANISOU>  (1) 
  372  N   SER A 101     2971    920    895    -37    335     27       N  
  373  CA  SER A 101     3049    831   1107     57    241    142       C  
  374  C   SER A 101     3023    765   1236     28    167     48       C  
  375  O   SER A 101     3210    870   1163    -25    261   -141       O  
  376  CB  SER A 101     3369    951   1163    316    237    151       C  
  377  OG  SER A 101     3846    982   1229     36    351     46       O  
 3937  CAA 5R7 A 301     4201   1509   2035     -1    659    -18       C  
 3938  CAB 5R7 A 301     5007   1421   1535     48    494   -157       C  
 3939  NAC 5R7 A 301     8773   4434   5832   -349    318     -7       N  
 3940  OAD 5R7 A 301     2993    761   1138    -27    301    -16       O  
 3941  OAE 5R7 A 301     4506   1929   1915    247   -703    -82       O  
 3942  OAF 5R7 A 301     8820   4510   5906   -411    407    133       O  
 3943  OAG 5R7 A 301     8741   4430   6040   -191    297    -25       O  
 3944  OAH 5R7 A 301     4662   2370   2583    665   -315    203       O  
 3945  OAI 5R7 A 301     4517   1228   2034   -169    365    138       O  
 3946  CAJ 5R7 A 301     3611    913   1123     49    295     12       C  
 3947  CAK 5R7 A 301     6742   2880   3378    152   -456   -317       C  
 3948  CAL 5R7 A 301     7753   3625   4703    -90     10    -44       C  
 3949  CAM 5R7 A 301     6826   2949   3436     17   -407   -192       C  
 3950  NAN 5R7 A 301     3987   1122   1353    499   -114     61       N  
 3951  NAO 5R7 A 301     6985   3046   3624    -28   -561   -304       N  
 3952  NAP 5R7 A 301     8306   3997   5340   -140    280      5       N  
 3953  SAQ 5R7 A 301     5624   2209   2302    261   -317   -374       S  
 3954  CAR 5R7 A 301     4515   1844   2094    584   -467    134       C  
 3955  CAS 5R7 A 301     4403   1438   1648    388   -157     79       C  
 3956  CAT 5R7 A 301     4277   1239   1902    -62    463    193       C  
 3957  CAU 5R7 A 301     4404   1373   1408    116    262    279       C  
 3958  CAV 5R7 A 301     7199   3241   3971    -32   -276   -160       C  
 3959  CAW 5R7 A 301     6402   2653   3050    141   -368   -304       C  
 3960  CAX 5R7 A 301     3956   1051   1409     53    190    156       C  
 3961  CAY 5R7 A 301     4250   1240   1429     83    308    241       C  
 3962  CAZ 5R7 A 301     4928   1645   1836    159    -94    -30       C  
 3963  SBA 5R7 A 301     8778   4443   5891   -308    370    -16       S  

>  <MASTER>  (1) 
      285    0    3   21   16    0    9    6 4332    2   69   36          

$$$$
