start_structures/Ligand_Substrate/Ligand_Complex_Stripped/LOR_1FCN.pdb
     RDKit          3D

 30 31  0  0  1  0  0  0  0  0999 V2000
   48.7969   51.8769   46.3360 N   0  0  0  0  0  0  0  0  0  0  0  0
   47.4471   51.3819   46.5438 C   0  0  2  0  0  0  0  0  0  0  0  0
   47.4042   49.8868   46.4406 C   0  0  0  0  0  0  0  0  0  0  0  0
   46.4739   49.2685   46.9368 O   0  0  0  0  0  0  0  0  0  0  0  0
   46.5156   52.0027   45.5095 C   0  0  0  0  0  0  0  0  0  0  0  0
   46.1623   53.3331   45.8733 O   0  0  0  0  0  0  0  0  0  0  0  0
   49.1819   54.7439   50.6291 Cl  0  0  0  0  0  0  0  0  0  0  0  0
   45.2367   53.6106   46.8813 C   0  0  0  0  0  0  0  0  0  0  0  0
   44.6158   52.6750   47.4553 O   0  0  0  0  0  0  0  0  0  0  0  0
   45.0352   55.0374   47.3015 C   0  0  1  0  0  0  0  0  0  0  0  0
   43.6418   55.3889   47.5778 N   0  0  0  0  0  0  0  0  0  0  0  0
   46.0248   55.5765   48.3449 C   0  0  1  0  0  0  0  0  0  0  0  0
   46.0623   54.7838   49.6562 C   0  0  0  0  0  0  0  0  0  0  0  0
   46.9888   53.5836   49.5270 C   0  0  0  0  0  0  0  0  0  0  0  0
   48.3998   54.0458   49.1854 C   0  0  0  0  0  0  0  0  0  0  0  0
   48.4126   55.0420   48.0514 C   0  0  0  0  0  0  0  0  0  0  0  0
   49.6630   55.2877   47.3172 C   0  0  0  0  0  0  0  0  0  0  0  0
   47.3535   55.7368   47.7439 N   0  0  0  0  0  0  0  0  0  0  0  0
   42.8322   54.9037   48.6581 C   0  0  0  0  0  0  0  0  0  0  0  0
   43.2740   54.0444   49.4647 O   0  0  0  0  0  0  0  0  0  0  0  0
   41.4502   55.4375   48.8528 C   0  0  2  0  0  0  0  0  0  0  0  0
   40.7026   55.3920   47.6059 N   0  0  0  0  0  0  0  0  0  0  0  0
   41.4750   56.8271   49.4100 C   0  0  0  0  0  0  0  0  0  0  0  0
   41.8925   57.9171   48.6301 C   0  0  0  0  0  0  0  0  0  0  0  0
   41.9246   59.2023   49.1788 C   0  0  0  0  0  0  0  0  0  0  0  0
   41.5435   59.4040   50.5085 C   0  0  0  0  0  0  0  0  0  0  0  0
   41.1316   58.3205   51.2900 C   0  0  0  0  0  0  0  0  0  0  0  0
   41.0994   57.0346   50.7420 C   0  0  0  0  0  0  0  0  0  0  0  0
   50.7047   54.6362   47.5940 O   0  0  0  0  0  0  0  0  0  0  0  0
   49.7023   56.2384   46.3042 O   0  0  0  0  0  0  0  0  0  0  0  0
  2  1  1  6
  2  5  1  0
  2  3  1  0
  3  4  2  0
  6  8  1  0
  6  5  1  0
  8  9  2  0
 10  8  1  0
 10 11  1  1
 11 19  1  0
 12 10  1  0
 12 13  1  1
 12 18  1  0
 13 14  1  0
 14 15  1  0
 15  7  1  0
 15 16  1  0
 16 17  1  0
 16 18  2  0
 17 29  2  0
 17 30  1  0
 19 20  2  0
 19 21  1  0
 21 22  1  6
 21 23  1  0
 23 24  2  0
 23 28  1  0
 24 25  1  0
 25 26  2  0
 26 27  1  0
 27 28  2  0
M  END
>  <HEADER>  (1) 
    HYDROLASE                               18-JUL-00   1FCN              

>  <TITLE>  (1) 
    CRYSTAL STRUCTURE OF THE E. COLI AMPC BETA-LACTAMASE MUTANT           
   2 Q120L/Y150E COVALENTLY ACYLATED WITH THE SUBSTRATE BETA-LACTAM       
   3 LORACARBEF                                                           

>  <COMPND>  (1) 
    MOL_ID: 1;                                                            
   2 MOLECULE: BETA-LACTAMASE;                                            
   3 CHAIN: A, B;                                                         
   4 SYNONYM: CEPHALOSPORINASE, AMPC BETA-LACTAMASE;                      
   5 EC: 3.5.2.6;                                                         
   6 ENGINEERED: YES;                                                     
   7 MUTATION: YES;                                                       
   8 OTHER_DETAILS: INHIBITOR LORACARBEF, RESIDUE LOR, BINDS TO SER 61 BY 
   9 BREAKING ITS C1-N1 LACTAM BOND                                       

>  <SOURCE>  (1) 
    MOL_ID: 1;                                                            
   2 ORGANISM_SCIENTIFIC: ESCHERICHIA COLI;                               
   3 ORGANISM_TAXID: 562;                                                 
   4 EXPRESSION_SYSTEM: ESCHERICHIA COLI;                                 
   5 EXPRESSION_SYSTEM_TAXID: 562;                                        
   6 EXPRESSION_SYSTEM_VECTOR_TYPE: PLASMID;                              
   7 EXPRESSION_SYSTEM_PLASMID: POGO295                                   

>  <KEYWDS>  (1) 
    BETA-LACTAMASE BETA-LACTAM COMPLEX, ENZYME INHIBITOR COMPLEX,         
   2 HYDROLASE                                                            

>  <EXPDTA>  (1) 
    X-RAY DIFFRACTION                                                     

>  <AUTHOR>  (1) 
    A.PATERA,L.C.BLASZCZAK,B.K.SHOICHET                                   

>  <REVDAT>  (1) 
   6   03-NOV-21 1FCN    1       REMARK SEQADV LINK                       
   5   14-FEB-18 1FCN    1       REMARK                                   
   4   04-OCT-17 1FCN    1       REMARK                                   
   3   24-AUG-11 1FCN    1       HETNAM HETSYN VERSN                      
   2   24-FEB-09 1FCN    1       VERSN                                    
   1   04-DEC-00 1FCN    0                                                

>  <JRNL>  (1) 
      AUTH   A.PATERA,L.C.BLASZCZAK,B.K.SHOICHET                          
      TITL   CRYSTAL STRUCTURES OF SUBSTRATE AND INHIBITOR COMPLEXES WITH 
      TITL 2 AMPC -LACTAMASE: POSSIBLE IMPLICATIONS FOR                   
      TITL 3 SUBSTRATE-ASSISTED CATALYSIS                                 
      REF    J.AM.CHEM.SOC.                V. 122 10504 2000              
      REFN                   ISSN 0002-7863                               
      DOI    10.1021/JA001676X                                            

>  <REMARK>  (1) 
   2                                                                      
   2 RESOLUTION.    2.35 ANGSTROMS.                                       
   3                                                                      
   3 REFINEMENT.                                                          
   3   PROGRAM     : CNS                                                  
   3   AUTHORS     : BRUNGER,ADAMS,CLORE,DELANO,GROS,GROSSE-              
   3               : KUNSTLEVE,JIANG,KUSZEWSKI,NILGES,PANNU,              
   3               : READ,RICE,SIMONSON,WARREN                            
   3                                                                      
   3  REFINEMENT TARGET : NULL                                            
   3                                                                      
   3  DATA USED IN REFINEMENT.                                            
   3   RESOLUTION RANGE HIGH (ANGSTROMS) : 2.35                           
   3   RESOLUTION RANGE LOW  (ANGSTROMS) : 8.00                           
   3   DATA CUTOFF            (SIGMA(F)) : 0.000                          
   3   DATA CUTOFF HIGH         (ABS(F)) : NULL                           
   3   DATA CUTOFF LOW          (ABS(F)) : NULL                           
   3   COMPLETENESS (WORKING+TEST)   (%) : 95.1                           
   3   NUMBER OF REFLECTIONS             : 30371                          
   3                                                                      
   3  FIT TO DATA USED IN REFINEMENT.                                     
   3   CROSS-VALIDATION METHOD          : NULL                            
   3   FREE R VALUE TEST SET SELECTION  : NULL                            
   3   R VALUE            (WORKING SET) : 0.208                           
   3   FREE R VALUE                     : 0.257                           
   3   FREE R VALUE TEST SET SIZE   (%) : 10.000                          
   3   FREE R VALUE TEST SET COUNT      : 3033                            
   3   ESTIMATED ERROR OF FREE R VALUE  : NULL                            
   3                                                                      
   3  FIT IN THE HIGHEST RESOLUTION BIN.                                  
   3   TOTAL NUMBER OF BINS USED           : NULL                         
   3   BIN RESOLUTION RANGE HIGH       (A) : NULL                         
   3   BIN RESOLUTION RANGE LOW        (A) : NULL                         
   3   BIN COMPLETENESS (WORKING+TEST) (%) : NULL                         
   3   REFLECTIONS IN BIN    (WORKING SET) : NULL                         
   3   BIN R VALUE           (WORKING SET) : NULL                         
   3   BIN FREE R VALUE                    : NULL                         
   3   BIN FREE R VALUE TEST SET SIZE  (%) : NULL                         
   3   BIN FREE R VALUE TEST SET COUNT     : NULL                         
   3   ESTIMATED ERROR OF BIN FREE R VALUE : NULL                         
   3                                                                      
   3  NUMBER OF NON-HYDROGEN ATOMS USED IN REFINEMENT.                    
   3   PROTEIN ATOMS            : 5541                                    
   3   NUCLEIC ACID ATOMS       : 0                                       
   3   HETEROGEN ATOMS          : 48                                      
   3   SOLVENT ATOMS            : 126                                     
   3                                                                      
   3  B VALUES.                                                           
   3   FROM WILSON PLOT           (A**2) : NULL                           
   3   MEAN B VALUE      (OVERALL, A**2) : NULL                           
   3   OVERALL ANISOTROPIC B VALUE.                                       
   3    B11 (A**2) : -1.26600                                             
   3    B22 (A**2) : 2.67700                                              
   3    B33 (A**2) : -1.41100                                             
   3    B12 (A**2) : 0.00000                                              
   3    B13 (A**2) : -6.84700                                             
   3    B23 (A**2) : 0.00000                                              
   3                                                                      
   3  ESTIMATED COORDINATE ERROR.                                         
   3   ESD FROM LUZZATI PLOT        (A) : NULL                            
   3   ESD FROM SIGMAA              (A) : NULL                            
   3   LOW RESOLUTION CUTOFF        (A) : NULL                            
   3                                                                      
   3  CROSS-VALIDATED ESTIMATED COORDINATE ERROR.                         
   3   ESD FROM C-V LUZZATI PLOT    (A) : NULL                            
   3   ESD FROM C-V SIGMAA          (A) : NULL                            
   3                                                                      
   3  RMS DEVIATIONS FROM IDEAL VALUES.                                   
   3   BOND LENGTHS                 (A) : NULL                            
   3   BOND ANGLES            (DEGREES) : NULL                            
   3   DIHEDRAL ANGLES        (DEGREES) : NULL                            
   3   IMPROPER ANGLES        (DEGREES) : NULL                            
   3                                                                      
   3  ISOTROPIC THERMAL MODEL : NULL                                      
   3                                                                      
   3  ISOTROPIC THERMAL FACTOR RESTRAINTS.    RMS    SIGMA                
   3   MAIN-CHAIN BOND              (A**2) : NULL  ; NULL                 
   3   MAIN-CHAIN ANGLE             (A**2) : NULL  ; NULL                 
   3   SIDE-CHAIN BOND              (A**2) : NULL  ; NULL                 
   3   SIDE-CHAIN ANGLE             (A**2) : NULL  ; NULL                 
   3                                                                      
   3  BULK SOLVENT MODELING.                                              
   3   METHOD USED : NULL                                                 
   3   KSOL        : NULL                                                 
   3   BSOL        : NULL                                                 
   3                                                                      
   3  NCS MODEL : NULL                                                    
   3                                                                      
   3  NCS RESTRAINTS.                         RMS   SIGMA/WEIGHT          
   3   GROUP  1  POSITIONAL            (A) : NULL  ; NULL                 
   3   GROUP  1  B-FACTOR           (A**2) : NULL  ; NULL                 
   3                                                                      
   3  PARAMETER FILE  1  : NULL                                           
   3  TOPOLOGY FILE  1   : NULL                                           
   3                                                                      
   3  OTHER REFINEMENT REMARKS: NULL                                      
   4                                                                      
   4 1FCN COMPLIES WITH FORMAT V. 3.30, 13-JUL-11                         
 100                                                                      
 100 THIS ENTRY HAS BEEN PROCESSED BY RCSB ON 11-AUG-00.                  
 100 THE DEPOSITION ID IS D_1000011481.                                   
 200                                                                      
 200 EXPERIMENTAL DETAILS                                                 
 200  EXPERIMENT TYPE                : X-RAY DIFFRACTION                  
 200  DATE OF DATA COLLECTION        : NULL                               
 200  TEMPERATURE           (KELVIN) : 129                                
 200  PH                             : 8.7                                
 200  NUMBER OF CRYSTALS USED        : 1                                  
 200                                                                      
 200  SYNCHROTRON              (Y/N) : NULL                               
 200  RADIATION SOURCE               : NULL                               
 200  BEAMLINE                       : NULL                               
 200  X-RAY GENERATOR MODEL          : NULL                               
 200  MONOCHROMATIC OR LAUE    (M/L) : M                                  
 200  WAVELENGTH OR RANGE        (A) : NULL                               
 200  MONOCHROMATOR                  : NULL                               
 200  OPTICS                         : NULL                               
 200                                                                      
 200  DETECTOR TYPE                  : NULL                               
 200  DETECTOR MANUFACTURER          : NULL                               
 200  INTENSITY-INTEGRATION SOFTWARE : R-AXIS                             
 200  DATA SCALING SOFTWARE          : SCALEPACK                          
 200                                                                      
 200  NUMBER OF UNIQUE REFLECTIONS   : 33137                              
 200  RESOLUTION RANGE HIGH      (A) : 2.350                              
 200  RESOLUTION RANGE LOW       (A) : 20.000                             
 200  REJECTION CRITERIA  (SIGMA(I)) : NULL                               
 200                                                                      
 200 OVERALL.                                                             
 200  COMPLETENESS FOR RANGE     (%) : NULL                               
 200  DATA REDUNDANCY                : NULL                               
 200  R MERGE                    (I) : 0.08100                            
 200  R SYM                      (I) : NULL                               
 200  <I/SIGMA(I)> FOR THE DATA SET  : 11.9000                            
 200                                                                      
 200 IN THE HIGHEST RESOLUTION SHELL.                                     
 200  HIGHEST RESOLUTION SHELL, RANGE HIGH (A) : NULL                     
 200  HIGHEST RESOLUTION SHELL, RANGE LOW  (A) : NULL                     
 200  COMPLETENESS FOR SHELL     (%) : NULL                               
 200  DATA REDUNDANCY IN SHELL       : NULL                               
 200  R MERGE FOR SHELL          (I) : NULL                               
 200  R SYM FOR SHELL            (I) : NULL                               
 200  <I/SIGMA(I)> FOR SHELL         : NULL                               
 200                                                                      
 200 DIFFRACTION PROTOCOL: SINGLE WAVELENGTH                              
 200 METHOD USED TO DETERMINE THE STRUCTURE: NULL                         
 200 SOFTWARE USED: CNS                                                   
 200 STARTING MODEL: NULL                                                 
 200                                                                      
 200 REMARK: NULL                                                         
 280                                                                      
 280 CRYSTAL                                                              
 280 SOLVENT CONTENT, VS   (%): 51.62                                     
 280 MATTHEWS COEFFICIENT, VM (ANGSTROMS**3/DA): 2.54                     
 280                                                                      
 280 CRYSTALLIZATION CONDITIONS: 1.7 M POTASSIUM PHOSPHATE, PH 8.7,       
 280  VAPOR DIFFUSION, HANGING DROP, TEMPERATURE 296K                     
 290                                                                      
 290 CRYSTALLOGRAPHIC SYMMETRY                                            
 290 SYMMETRY OPERATORS FOR SPACE GROUP: C 1 2 1                          
 290                                                                      
 290      SYMOP   SYMMETRY                                                
 290     NNNMMM   OPERATOR                                                
 290       1555   X,Y,Z                                                   
 290       2555   -X,Y,-Z                                                 
 290       3555   X+1/2,Y+1/2,Z                                           
 290       4555   -X+1/2,Y+1/2,-Z                                         
 290                                                                      
 290     WHERE NNN -> OPERATOR NUMBER                                     
 290           MMM -> TRANSLATION VECTOR                                  
 290                                                                      
 290 CRYSTALLOGRAPHIC SYMMETRY TRANSFORMATIONS                            
 290 THE FOLLOWING TRANSFORMATIONS OPERATE ON THE ATOM/HETATM             
 290 RECORDS IN THIS ENTRY TO PRODUCE CRYSTALLOGRAPHICALLY                
 290 RELATED MOLECULES.                                                   
 290   SMTRY1   1  1.000000  0.000000  0.000000        0.00000            
 290   SMTRY2   1  0.000000  1.000000  0.000000        0.00000            
 290   SMTRY3   1  0.000000  0.000000  1.000000        0.00000            
 290   SMTRY1   2 -1.000000  0.000000  0.000000        0.00000            
 290   SMTRY2   2  0.000000  1.000000  0.000000        0.00000            
 290   SMTRY3   2  0.000000  0.000000 -1.000000        0.00000            
 290   SMTRY1   3  1.000000  0.000000  0.000000       59.68000            
 290   SMTRY2   3  0.000000  1.000000  0.000000       38.13200            
 290   SMTRY3   3  0.000000  0.000000  1.000000        0.00000            
 290   SMTRY1   4 -1.000000  0.000000  0.000000       59.68000            
 290   SMTRY2   4  0.000000  1.000000  0.000000       38.13200            
 290   SMTRY3   4  0.000000  0.000000 -1.000000        0.00000            
 290                                                                      
 290 REMARK: NULL                                                         
 300                                                                      
 300 BIOMOLECULE: 1, 2                                                    
 300 SEE REMARK 350 FOR THE AUTHOR PROVIDED AND/OR PROGRAM                
 300 GENERATED ASSEMBLY INFORMATION FOR THE STRUCTURE IN                  
 300 THIS ENTRY. THE REMARK MAY ALSO PROVIDE INFORMATION ON               
 300 BURIED SURFACE AREA.                                                 
 350                                                                      
 350 COORDINATES FOR A COMPLETE MULTIMER REPRESENTING THE KNOWN           
 350 BIOLOGICALLY SIGNIFICANT OLIGOMERIZATION STATE OF THE                
 350 MOLECULE CAN BE GENERATED BY APPLYING BIOMT TRANSFORMATIONS          
 350 GIVEN BELOW.  BOTH NON-CRYSTALLOGRAPHIC AND                          
 350 CRYSTALLOGRAPHIC OPERATIONS ARE GIVEN.                               
 350                                                                      
 350 BIOMOLECULE: 1                                                       
 350 AUTHOR DETERMINED BIOLOGICAL UNIT: MONOMERIC                         
 350 APPLY THE FOLLOWING TO CHAINS: A                                     
 350   BIOMT1   1  1.000000  0.000000  0.000000        0.00000            
 350   BIOMT2   1  0.000000  1.000000  0.000000        0.00000            
 350   BIOMT3   1  0.000000  0.000000  1.000000        0.00000            
 350                                                                      
 350 BIOMOLECULE: 2                                                       
 350 AUTHOR DETERMINED BIOLOGICAL UNIT: MONOMERIC                         
 350 APPLY THE FOLLOWING TO CHAINS: B                                     
 350   BIOMT1   1  1.000000  0.000000  0.000000        0.00000            
 350   BIOMT2   1  0.000000  1.000000  0.000000        0.00000            
 350   BIOMT3   1  0.000000  0.000000  1.000000        0.00000            
 465                                                                      
 465 MISSING RESIDUES                                                     
 465 THE FOLLOWING RESIDUES WERE NOT LOCATED IN THE                       
 465 EXPERIMENT. (M=MODEL NUMBER; RES=RESIDUE NAME; C=CHAIN               
 465 IDENTIFIER; SSSEQ=SEQUENCE NUMBER; I=INSERTION CODE.)                
 465                                                                      
 465   M RES C SSSEQI                                                     
 465     ASN A   282                                                      
 465     GLY A   283                                                      
 465     SER A   284                                                      
 465     ASP A   285                                                      
 465     ASN A   286                                                      
 465     LYS A   287                                                      
 470                                                                      
 470 MISSING ATOM                                                         
 470 THE FOLLOWING RESIDUES HAVE MISSING ATOMS (M=MODEL NUMBER;           
 470 RES=RESIDUE NAME; C=CHAIN IDENTIFIER; SSEQ=SEQUENCE NUMBER;          
 470 I=INSERTION CODE):                                                   
 470   M RES CSSEQI  ATOMS                                                
 470     GLN A 358    CG   CD   OE1  NE2                                  
 470     GLN B 358    CG   CD   OE1  NE2                                  
 500                                                                      
 500 GEOMETRY AND STEREOCHEMISTRY                                         
 500 SUBTOPIC: CLOSE CONTACTS IN SAME ASYMMETRIC UNIT                     
 500                                                                      
 500 THE FOLLOWING ATOMS ARE IN CLOSE CONTACT.                            
 500                                                                      
 500  ATM1  RES C  SSEQI   ATM2  RES C  SSEQI           DISTANCE          
 500   OD1  ASP B    84     OH   TYR B    89              2.09            
 500   O    PRO A   277     N    ILE A   281              2.14            
 500                                                                      
 500 REMARK: NULL                                                         
 500                                                                      
 500 GEOMETRY AND STEREOCHEMISTRY                                         
 500 SUBTOPIC: COVALENT BOND ANGLES                                       
 500                                                                      
 500 THE STEREOCHEMICAL PARAMETERS OF THE FOLLOWING RESIDUES              
 500 HAVE VALUES WHICH DEVIATE FROM EXPECTED VALUES BY MORE               
 500 THAN 6*RMSD (M=MODEL NUMBER; RES=RESIDUE NAME; C=CHAIN               
 500 IDENTIFIER; SSEQ=SEQUENCE NUMBER; I=INSERTION CODE).                 
 500                                                                      
 500 STANDARD TABLE:                                                      
 500 FORMAT: (10X,I3,1X,A3,1X,A1,I4,A1,3(1X,A4,2X),12X,F5.1)              
 500                                                                      
 500 EXPECTED VALUES PROTEIN: ENGH AND HUBER, 1999                        
 500 EXPECTED VALUES NUCLEIC ACID: CLOWNEY ET AL 1996                     
 500                                                                      
 500  M RES CSSEQI ATM1   ATM2   ATM3                                     
 500    GLY A 219   N   -  CA  -  C   ANGL. DEV. =  16.1 DEGREES          
 500    PRO A 277   C   -  N   -  CA  ANGL. DEV. =   9.1 DEGREES          
 500                                                                      
 500 REMARK: NULL                                                         
 500                                                                      
 500 GEOMETRY AND STEREOCHEMISTRY                                         
 500 SUBTOPIC: TORSION ANGLES                                             
 500                                                                      
 500 TORSION ANGLES OUTSIDE THE EXPECTED RAMACHANDRAN REGIONS:            
 500 (M=MODEL NUMBER; RES=RESIDUE NAME; C=CHAIN IDENTIFIER;               
 500 SSEQ=SEQUENCE NUMBER; I=INSERTION CODE).                             
 500                                                                      
 500 STANDARD TABLE:                                                      
 500 FORMAT:(10X,I3,1X,A3,1X,A1,I4,A1,4X,F7.2,3X,F7.2)                    
 500                                                                      
 500 EXPECTED VALUES: GJ KLEYWEGT AND TA JONES (1996). PHI/PSI-           
 500 CHOLOGY: RAMACHANDRAN REVISITED. STRUCTURE 4, 1395 - 1400            
 500                                                                      
 500  M RES CSSEQI        PSI       PHI                                   
 500    VAL A 175      -54.38   -129.69                                   
 500    ALA A 289      -12.16    -29.50                                   
 500    ALA A 304      126.47    -37.80                                   
 500    LYS A 312      130.32   -170.85                                   
 500    ASN A 338       52.70   -106.27                                   
 500    GLN B   3      -31.03    -35.42                                   
 500    THR B  12      -66.47    -99.79                                   
 500    PRO B  91      -15.31    -46.75                                   
 500    LYS B 123      -70.60   -132.96                                   
 500    GLU B 147      144.81    -35.44                                   
 500    ALA B 148      121.18   -174.71                                   
 500    VAL B 175      -58.30   -124.31                                   
 500    TYR B 218       13.10   -150.55                                   
 500    ASN B 338       51.97    -99.50                                   
 500                                                                      
 500 REMARK: NULL                                                         
 500                                                                      
 500 GEOMETRY AND STEREOCHEMISTRY                                         
 500 SUBTOPIC: PLANAR GROUPS                                              
 500                                                                      
 500 PLANAR GROUPS IN THE FOLLOWING RESIDUES HAVE A TOTAL                 
 500 RMS DISTANCE OF ALL ATOMS FROM THE BEST-FIT PLANE                    
 500 BY MORE THAN AN EXPECTED VALUE OF 6*RMSD, WITH AN                    
 500 RMSD 0.02 ANGSTROMS, OR AT LEAST ONE ATOM HAS                        
 500 AN RMSD GREATER THAN THIS VALUE                                      
 500 (M=MODEL NUMBER; RES=RESIDUE NAME; C=CHAIN IDENTIFIER;               
 500 SSEQ=SEQUENCE NUMBER; I=INSERTION CODE).                             
 500                                                                      
 500  M RES CSSEQI        RMS     TYPE                                    
 500    TYR A  42         0.07    SIDE CHAIN                              
 500                                                                      
 500 REMARK: NULL                                                         
 800                                                                      
 800 SITE                                                                 
 800 SITE_IDENTIFIER: AC1                                                 
 800 EVIDENCE_CODE: SOFTWARE                                              
 800 SITE_DESCRIPTION: BINDING SITE FOR RESIDUE LOR A 961                 
 800                                                                      
 800 SITE_IDENTIFIER: AC2                                                 
 800 EVIDENCE_CODE: SOFTWARE                                              
 800 SITE_DESCRIPTION: BINDING SITE FOR RESIDUE LOR B 961                 
 900                                                                      
 900 RELATED ENTRIES                                                      
 900 RELATED ID: 1FCM   RELATED DB: PDB                                   
 900 THE MUTANT PROTEIN Q120L/Y150E COMPLEXED WITH INHIBITOR CLOXACILLIN  
 900 RELATED ID: 1FCO   RELATED DB: PDB                                   
 900 THE MUTANT PROTEIN Q120L/Y150E COMPLEXED WITH MOXALACTAM DERIVATIVE  

>  <DBREF>  (1) 
 1FCN A    1   358  UNP    P00811   AMPC_ECOLI      20    377             
 1FCN B    1   358  UNP    P00811   AMPC_ECOLI      20    377             

>  <SEQADV>  (1) 
 1FCN LEU A  117  UNP  P00811    GLN   136 ENGINEERED MUTATION            
 1FCN GLU A  147  UNP  P00811    TYR   166 ENGINEERED MUTATION            
 1FCN LEU B  117  UNP  P00811    GLN   136 ENGINEERED MUTATION            
 1FCN GLU B  147  UNP  P00811    TYR   166 ENGINEERED MUTATION            

>  <SEQRES>  (1) 
   1 A  358  ALA PRO GLN GLN ILE ASN ASP ILE VAL HIS ARG THR ILE          
   2 A  358  THR PRO LEU ILE GLU GLN GLN LYS ILE PRO GLY MET ALA          
   3 A  358  VAL ALA VAL ILE TYR GLN GLY LYS PRO TYR TYR PHE THR          
   4 A  358  TRP GLY TYR ALA ASP ILE ALA LYS LYS GLN PRO VAL THR          
   5 A  358  GLN GLN THR LEU PHE GLU LEU GLY SER VAL SER LYS THR          
   6 A  358  PHE THR GLY VAL LEU GLY GLY ASP ALA ILE ALA ARG GLY          
   7 A  358  GLU ILE LYS LEU SER ASP PRO THR THR LYS TYR TRP PRO          
   8 A  358  GLU LEU THR ALA LYS GLN TRP ASN GLY ILE THR LEU LEU          
   9 A  358  HIS LEU ALA THR TYR THR ALA GLY GLY LEU PRO LEU LEU          
  10 A  358  VAL PRO ASP GLU VAL LYS SER SER SER ASP LEU LEU ARG          
  11 A  358  PHE TYR GLN ASN TRP GLN PRO ALA TRP ALA PRO GLY THR          
  12 A  358  GLN ARG LEU GLU ALA ASN SER SER ILE GLY LEU PHE GLY          
  13 A  358  ALA LEU ALA VAL LYS PRO SER GLY LEU SER PHE GLU GLN          
  14 A  358  ALA MET GLN THR ARG VAL PHE GLN PRO LEU LYS LEU ASN          
  15 A  358  HIS THR TRP ILE ASN VAL PRO PRO ALA GLU GLU LYS ASN          
  16 A  358  TYR ALA TRP GLY TYR ARG GLU GLY LYS ALA VAL HIS VAL          
  17 A  358  SER PRO GLY ALA LEU ASP ALA GLU ALA TYR GLY VAL LYS          
  18 A  358  SER THR ILE GLU ASP MET ALA ARG TRP VAL GLN SER ASN          
  19 A  358  LEU LYS PRO LEU ASP ILE ASN GLU LYS THR LEU GLN GLN          
  20 A  358  GLY ILE GLN LEU ALA GLN SER ARG TYR TRP GLN THR GLY          
  21 A  358  ASP MET TYR GLN GLY LEU GLY TRP GLU MET LEU ASP TRP          
  22 A  358  PRO VAL ASN PRO ASP SER ILE ILE ASN GLY SER ASP ASN          
  23 A  358  LYS ILE ALA LEU ALA ALA ARG PRO VAL LYS ALA ILE THR          
  24 A  358  PRO PRO THR PRO ALA VAL ARG ALA SER TRP VAL HIS LYS          
  25 A  358  THR GLY ALA THR GLY GLY PHE GLY SER TYR VAL ALA PHE          
  26 A  358  ILE PRO GLU LYS GLU LEU GLY ILE VAL MET LEU ALA ASN          
  27 A  358  LYS ASN TYR PRO ASN PRO ALA ARG VAL ASP ALA ALA TRP          
  28 A  358  GLN ILE LEU ASN ALA LEU GLN                                  
   1 B  358  ALA PRO GLN GLN ILE ASN ASP ILE VAL HIS ARG THR ILE          
   2 B  358  THR PRO LEU ILE GLU GLN GLN LYS ILE PRO GLY MET ALA          
   3 B  358  VAL ALA VAL ILE TYR GLN GLY LYS PRO TYR TYR PHE THR          
   4 B  358  TRP GLY TYR ALA ASP ILE ALA LYS LYS GLN PRO VAL THR          
   5 B  358  GLN GLN THR LEU PHE GLU LEU GLY SER VAL SER LYS THR          
   6 B  358  PHE THR GLY VAL LEU GLY GLY ASP ALA ILE ALA ARG GLY          
   7 B  358  GLU ILE LYS LEU SER ASP PRO THR THR LYS TYR TRP PRO          
   8 B  358  GLU LEU THR ALA LYS GLN TRP ASN GLY ILE THR LEU LEU          
   9 B  358  HIS LEU ALA THR TYR THR ALA GLY GLY LEU PRO LEU LEU          
  10 B  358  VAL PRO ASP GLU VAL LYS SER SER SER ASP LEU LEU ARG          
  11 B  358  PHE TYR GLN ASN TRP GLN PRO ALA TRP ALA PRO GLY THR          
  12 B  358  GLN ARG LEU GLU ALA ASN SER SER ILE GLY LEU PHE GLY          
  13 B  358  ALA LEU ALA VAL LYS PRO SER GLY LEU SER PHE GLU GLN          
  14 B  358  ALA MET GLN THR ARG VAL PHE GLN PRO LEU LYS LEU ASN          
  15 B  358  HIS THR TRP ILE ASN VAL PRO PRO ALA GLU GLU LYS ASN          
  16 B  358  TYR ALA TRP GLY TYR ARG GLU GLY LYS ALA VAL HIS VAL          
  17 B  358  SER PRO GLY ALA LEU ASP ALA GLU ALA TYR GLY VAL LYS          
  18 B  358  SER THR ILE GLU ASP MET ALA ARG TRP VAL GLN SER ASN          
  19 B  358  LEU LYS PRO LEU ASP ILE ASN GLU LYS THR LEU GLN GLN          
  20 B  358  GLY ILE GLN LEU ALA GLN SER ARG TYR TRP GLN THR GLY          
  21 B  358  ASP MET TYR GLN GLY LEU GLY TRP GLU MET LEU ASP TRP          
  22 B  358  PRO VAL ASN PRO ASP SER ILE ILE ASN GLY SER ASP ASN          
  23 B  358  LYS ILE ALA LEU ALA ALA ARG PRO VAL LYS ALA ILE THR          
  24 B  358  PRO PRO THR PRO ALA VAL ARG ALA SER TRP VAL HIS LYS          
  25 B  358  THR GLY ALA THR GLY GLY PHE GLY SER TYR VAL ALA PHE          
  26 B  358  ILE PRO GLU LYS GLU LEU GLY ILE VAL MET LEU ALA ASN          
  27 B  358  LYS ASN TYR PRO ASN PRO ALA ARG VAL ASP ALA ALA TRP          
  28 B  358  GLN ILE LEU ASN ALA LEU GLN                                  

>  <HET>  (1) 
 LOR  A 961      24                                                       
 LOR  B 961      24                                                       

>  <HETNAM>  (1) 
     LOR LORACABEF (OPEN FORM)                                            

>  <HETSYN>  (1) 
     LOR (3S,6R)-6-[(1S)-1-{[(2R)-2-AMINO-2-PHENYLACETYL]AMINO}-          
   2 LOR  2-OXOETHYL]-3-CHLORO-3,4,5,6-TETRAHYDROPYRIDINE-2-              
   3 LOR  CARBOXYLIC ACID                                                 

>  <FORMUL>  (1) 
   3  LOR    2(C16 H18 CL N3 O4)                                          
   5  HOH   *126(H2 O)                                                    

>  <HELIX>  (1) 
   1   1 PRO A    2  LYS A   21  1                                  20    
   2   2 VAL A   62  ARG A   77  1                                  16    
   3   3 THR A   86  TYR A   89  5                                   4    
   4   4 ALA A   95  ASN A   99  5                                   5    
   5   5 THR A  102  THR A  108  1                                   7    
   6   6 SER A  124  TRP A  135  1                                  12    
   7   7 ALA A  148  VAL A  160  1                                  13    
   8   8 SER A  166  VAL A  175  1                                  10    
   9   9 PRO A  189  ASN A  195  5                                   7    
  10  10 LEU A  213  TYR A  218  1                                   6    
  11  11 THR A  223  LYS A  236  1                                  14    
  12  12 PRO A  237  ILE A  240  5                                   4    
  13  13 GLU A  242  GLN A  253  1                                  12    
  14  14 ASN A  276  ILE A  281  1                                   6    
  15  15 PRO A  327  LYS A  329  5                                   3    
  16  16 PRO A  342  ALA A  356  1                                  15    
  17  17 PRO B    2  LYS B   21  1                                  20    
  18  18 VAL B   62  ARG B   77  1                                  16    
  19  19 THR B   86  TYR B   89  5                                   4    
  20  20 ALA B   95  ASN B   99  5                                   5    
  21  21 THR B  102  THR B  108  1                                   7    
  22  22 SER B  124  ASN B  134  1                                  11    
  23  23 ALA B  148  VAL B  160  1                                  13    
  24  24 SER B  166  VAL B  175  1                                  10    
  25  25 PRO B  189  GLU B  193  5                                   5    
  26  26 LEU B  213  TYR B  218  1                                   6    
  27  27 THR B  223  LYS B  236  1                                  14    
  28  28 PRO B  237  ILE B  240  5                                   4    
  29  29 GLU B  242  GLN B  253  1                                  12    
  30  30 ASN B  276  ASP B  285  1                                  10    
  31  31 ASP B  285  LEU B  290  1                                   6    
  32  32 PRO B  327  LYS B  329  5                                   3    
  33  33 PRO B  342  GLN B  358  1                                  17    

>  <SHEET>  (1) 
   1   A10 GLN A  49  PRO A  50  0                                        
   2   A10 LYS A  34  ASP A  44 -1  N  ALA A  43   O  GLN A  49           
   3   A10 GLY A  24  TYR A  31 -1  O  MET A  25   N  TRP A  40           
   4   A10 LEU A 331  ALA A 337 -1  O  GLY A 332   N  ILE A  30           
   5   A10 GLY A 320  ILE A 326 -1  O  GLY A 320   N  ALA A 337           
   6   A10 SER A 308  ALA A 315 -1  N  VAL A 310   O  PHE A 325           
   7   A10 GLU A 269  ASP A 272 -1  O  GLU A 269   N  HIS A 311           
   8   A10 MET A 262  GLN A 264 -1  N  TYR A 263   O  MET A 270           
   9   A10 ARG A 255  THR A 259 -1  N  TYR A 256   O  GLN A 264           
  10   A10 LYS A 296  THR A 302 -1  N  LYS A 296   O  GLN A 258           
   1   B 3 PHE A  57  GLU A  58  0                                        
   2   B 3 LYS A 221  SER A 222 -1  O  SER A 222   N  PHE A  57           
   3   B 3 THR A 184  TRP A 185 -1  O  TRP A 185   N  LYS A 221           
   1   C 2 GLN A 144  ARG A 145  0                                        
   2   C 2 ARG A 293  PRO A 294 -1  O  ARG A 293   N  ARG A 145           
   1   D 2 GLY A 199  ARG A 201  0                                        
   2   D 2 LYS A 204  VAL A 206 -1  O  LYS A 204   N  ARG A 201           
   1   E10 GLN B  49  PRO B  50  0                                        
   2   E10 LYS B  34  ASP B  44 -1  N  ALA B  43   O  GLN B  49           
   3   E10 GLY B  24  TYR B  31 -1  N  MET B  25   O  TRP B  40           
   4   E10 LEU B 331  ALA B 337 -1  O  GLY B 332   N  ILE B  30           
   5   E10 GLY B 320  ILE B 326 -1  N  GLY B 320   O  ALA B 337           
   6   E10 SER B 308  ALA B 315 -1  N  VAL B 310   O  PHE B 325           
   7   E10 GLU B 269  ASP B 272 -1  O  GLU B 269   N  HIS B 311           
   8   E10 MET B 262  GLN B 264 -1  N  TYR B 263   O  MET B 270           
   9   E10 ARG B 255  THR B 259 -1  N  TYR B 256   O  GLN B 264           
  10   E10 LYS B 296  THR B 302 -1  N  LYS B 296   O  GLN B 258           
   1   F 2 PHE B  57  GLU B  58  0                                        
   2   F 2 LYS B 221  SER B 222 -1  O  SER B 222   N  PHE B  57           
   1   G 2 GLN B 144  ARG B 145  0                                        
   2   G 2 ARG B 293  PRO B 294 -1  O  ARG B 293   N  ARG B 145           
   1   H 2 GLY B 199  ARG B 201  0                                        
   2   H 2 LYS B 204  VAL B 206 -1  N  LYS B 204   O  ARG B 201           

>  <LINK>  (1) 
       OG  SER A  61                 C1  LOR A 961     1555   1555  1.46  
       OG  SER B  61                 C1  LOR B 961     1555   1555  1.43  

>  <CISPEP>  (1) 
   1 TRP A  273    PRO A  274          0         0.09                     
   2 THR A  299    PRO A  300          0         1.47                     
   3 TRP B  273    PRO B  274          0         0.20                     
   4 THR B  299    PRO B  300          0        -0.62                     

>  <SITE>  (1) 
   1 AC1 13 SER A  61  LEU A 116  LEU A 117  ASN A 149                    
   2 AC1 13 TYR A 218  GLY A 314  ALA A 315  ASN A 340                    
   3 AC1 13 HOH A1002  HOH A1003  HOH A1015  ALA B   1                    
   4 AC1 13 GLN B   3                                                     
   1 AC2 13 SER B  61  LEU B 116  ASN B 149  TYR B 218                    
   2 AC2 13 ASN B 286  GLY B 314  ALA B 315  THR B 316                    
   3 AC2 13 ASN B 340  HOH B1012  HOH B1013  HOH B1022                    
   4 AC2 13 HOH B1028                                                     

>  <ORIGX1>  (1) 
      1.000000  0.000000  0.000000        0.00000                         

>  <ORIGX2>  (1) 
      0.000000  1.000000  0.000000        0.00000                         

>  <ORIGX3>  (1) 
      0.000000  0.000000  1.000000        0.00000                         

>  <SCALE1>  (1) 
      0.008378  0.000000  0.004086        0.00000                         

>  <SCALE2>  (1) 
      0.000000  0.013112  0.000000        0.00000                         

>  <SCALE3>  (1) 
      0.000000  0.000000  0.011312        0.00000                         

>  <MASTER>  (1) 
      329    0    2   33   33    0    8    6 5715    2   50   56          

$$$$
