start_structures/Ligand_Substrate/Ligand_Complex_Stripped/3S2_3S22.pdb
     RDKit          3D

 27 27  0  0  1  0  0  0  0  0999 V2000
   48.7964   51.8778   46.3361 N   0  0  0  0  0  0  0  0  0  0  0  0
   47.4470   51.3815   46.5441 C   0  0  2  0  0  0  0  0  0  0  0  0
   47.4045   49.8864   46.4404 C   0  0  0  0  0  0  0  0  0  0  0  0
   46.4742   49.2679   46.9365 O   0  0  0  0  0  0  0  0  0  0  0  0
   46.5138   52.0021   45.5111 C   0  0  0  0  0  0  0  0  0  0  0  0
   46.1641   53.3343   45.8719 O   0  0  0  0  0  0  0  0  0  0  0  0
   46.0793   55.3492   52.3962 C   0  0  0  0  0  0  0  0  0  0  0  0
   47.4600   55.4031   51.7714 C   0  0  0  0  0  0  0  0  0  0  0  0
   45.9273   56.4881   53.3818 C   0  0  0  0  0  0  0  0  0  0  0  0
   47.6247   54.2815   50.7585 C   0  0  0  0  0  0  0  0  0  0  0  0
   45.2650   53.6180   46.9043 C   0  0  0  0  0  0  0  0  0  0  0  0
   45.0024   55.0360   47.2972 C   0  0  2  0  0  0  0  0  0  0  0  0
   44.6040   56.4406   53.9753 N   0  0  0  0  0  0  0  0  0  0  0  0
   44.5222   57.5546   54.9016 C   0  0  0  0  0  0  0  0  0  0  0  0
   45.3147   56.6991   45.5410 C   0  0  0  0  0  0  0  0  0  0  0  0
   46.4767   56.7909   46.5132 C   0  0  0  0  0  0  0  0  0  0  0  0
   44.2876   55.7619   46.1677 C   0  0  2  0  0  0  0  0  0  0  0  0
   47.1233   55.5295   48.6094 C   0  0  0  0  0  0  0  0  0  0  0  0
   46.8030   54.5295   49.5815 N   0  0  0  0  0  0  0  0  0  0  0  0
   43.1924   56.5477   46.7126 N   0  0  0  0  0  0  0  0  0  0  0  0
   46.2524   55.7477   47.4925 N   0  0  0  0  0  0  0  0  0  0  0  0
   41.7851   54.2070   47.4277 O   0  0  0  0  0  0  0  0  0  0  0  0
   44.6629   52.6894   47.5073 O   0  0  0  0  0  0  0  0  0  0  0  0
   48.1738   56.2166   48.7323 O   0  0  0  0  0  0  0  0  0  0  0  0
   40.3941   56.5720   46.9929 O   0  0  0  0  0  0  0  0  0  0  0  0
   41.5361   55.2243   44.8481 O   0  0  0  0  0  0  0  0  0  0  0  0
   41.7172   55.6271   46.4920 S   0  0  0  0  0  0  0  0  0  0  0  0
  2  1  1  6
  2  5  1  0
  3  2  1  0
  3  4  2  0
  5  6  1  0
  6 11  1  0
  7  8  1  0
  7  9  1  0
  8 10  1  0
  9 13  1  0
 10 19  1  0
 11 23  2  0
 12 11  1  6
 12 17  1  0
 12 21  1  0
 13 14  1  0
 15 16  1  0
 15 17  1  0
 16 21  1  0
 17 20  1  6
 18 19  1  0
 18 21  1  0
 18 24  2  0
 20 27  1  0
 22 27  1  0
 25 27  1  0
 26 27  1  0
M  END
>  <HEADER>  (1) 
    HYDROLASE/HYDROLASE INHIBITOR           16-MAY-11   3S22              

>  <TITLE>  (1) 
    AMP-C BETA-LACTAMASE (PSEUDOMONAS AERUGINOSA) IN COMPLEX WITH AN      
   2 INHIBITOR                                                            

>  <COMPND>  (1) 
    MOL_ID: 1;                                                            
   2 MOLECULE: BETA-LACTAMASE;                                            
   3 CHAIN: A;                                                            
   4 SYNONYM: CEPHALOSPORINASE;                                           
   5 EC: 3.5.2.6;                                                         
   6 ENGINEERED: YES;                                                     
   7 MUTATION: YES                                                        

>  <SOURCE>  (1) 
    MOL_ID: 1;                                                            
   2 ORGANISM_SCIENTIFIC: PSEUDOMONAS AERUGINOSA;                         
   3 ORGANISM_TAXID: 287;                                                 
   4 GENE: AMPC, PA4110;                                                  
   5 EXPRESSION_SYSTEM: ESCHERICHIA COLI;                                 
   6 EXPRESSION_SYSTEM_TAXID: 562;                                        
   7 EXPRESSION_SYSTEM_VECTOR_TYPE: PLASMID;                              
   8 EXPRESSION_SYSTEM_PLASMID: PET 26                                    

>  <KEYWDS>  (1) 
    HYDROLASE, HYDROLASE-HYDROLASE INHIBITOR COMPLEX                      

>  <EXPDTA>  (1) 
    X-RAY DIFFRACTION                                                     

>  <AUTHOR>  (1) 
    G.SCAPIN,J.LU,P.M.D.FITZGERALD,N.SHARMA                               

>  <REVDAT>  (1) 
   2   26-JUN-13 3S22    1       JRNL   VERSN                             
   1   29-JUN-11 3S22    0                                                

>  <JRNL>  (1) 
      AUTH   H.CHEN,T.A.BLIZZARD,S.KIM,J.WU,K.YOUNG,Y.W.PARK,A.M.OGAWA,   
      AUTH 2 S.RAGHOOBAR,R.E.PAINTER,D.WISNIEWSKI,N.HAIRSTON,             
      AUTH 3 P.FITZGERALD,N.SHARMA,G.SCAPIN,J.LU,J.HERMES,M.L.HAMMOND     
      TITL   SIDE CHAIN SAR OF BICYCLIC BETA-LACTAMASE INHIBITORS (BLIS). 
      TITL 2 2. N-ALKYLATED AND OPEN CHAIN ANALOGS OF MK-8712             
      REF    BIOORG.MED.CHEM.LETT.         V.  21  4267 2011              
      REFN                   ISSN 0960-894X                               
      PMID   21676616                                                     
      DOI    10.1016/J.BMCL.2011.05.065                                   

>  <REMARK>  (1) 
   2                                                                      
   2 RESOLUTION.    1.65 ANGSTROMS.                                       
   3                                                                      
   3 REFINEMENT.                                                          
   3   PROGRAM     : REFMAC 5.2.0019                                      
   3   AUTHORS     : MURSHUDOV,VAGIN,DODSON                               
   3                                                                      
   3    REFINEMENT TARGET : MAXIMUM LIKELIHOOD                            
   3                                                                      
   3  DATA USED IN REFINEMENT.                                            
   3   RESOLUTION RANGE HIGH (ANGSTROMS) : 1.65                           
   3   RESOLUTION RANGE LOW  (ANGSTROMS) : 30.00                          
   3   DATA CUTOFF            (SIGMA(F)) : NULL                           
   3   COMPLETENESS FOR RANGE        (%) : 95.8                           
   3   NUMBER OF REFLECTIONS             : 38261                          
   3                                                                      
   3  FIT TO DATA USED IN REFINEMENT.                                     
   3   CROSS-VALIDATION METHOD          : THROUGHOUT                      
   3   FREE R VALUE TEST SET SELECTION  : RANDOM                          
   3   R VALUE     (WORKING + TEST SET) : 0.184                           
   3   R VALUE            (WORKING SET) : 0.183                           
   3   FREE R VALUE                     : 0.219                           
   3   FREE R VALUE TEST SET SIZE   (%) : 5.100                           
   3   FREE R VALUE TEST SET COUNT      : 2035                            
   3                                                                      
   3  FIT IN THE HIGHEST RESOLUTION BIN.                                  
   3   TOTAL NUMBER OF BINS USED           : 10                           
   3   BIN RESOLUTION RANGE HIGH       (A) : 1.65                         
   3   BIN RESOLUTION RANGE LOW        (A) : 1.74                         
   3   REFLECTION IN BIN     (WORKING SET) : 5587                         
   3   BIN COMPLETENESS (WORKING+TEST) (%) : 97.46                        
   3   BIN R VALUE           (WORKING SET) : 0.2270                       
   3   BIN FREE R VALUE SET COUNT          : 315                          
   3   BIN FREE R VALUE                    : 0.2680                       
   3                                                                      
   3  NUMBER OF NON-HYDROGEN ATOMS USED IN REFINEMENT.                    
   3   PROTEIN ATOMS            : 2756                                    
   3   NUCLEIC ACID ATOMS       : 0                                       
   3   HETEROGEN ATOMS          : 22                                      
   3   SOLVENT ATOMS            : 386                                     
   3                                                                      
   3  B VALUES.                                                           
   3   FROM WILSON PLOT           (A**2) : 25.70                          
   3   MEAN B VALUE      (OVERALL, A**2) : 18.11                          
   3   OVERALL ANISOTROPIC B VALUE.                                       
   3    B11 (A**2) : -0.32000                                             
   3    B22 (A**2) : -0.21000                                             
   3    B33 (A**2) : 0.53000                                              
   3    B12 (A**2) : 0.00000                                              
   3    B13 (A**2) : 0.00000                                              
   3    B23 (A**2) : 0.00000                                              
   3                                                                      
   3  ESTIMATED OVERALL COORDINATE ERROR.                                 
   3   ESU BASED ON R VALUE                            (A): NULL          
   3   ESU BASED ON FREE R VALUE                       (A): 0.107         
   3   ESU BASED ON MAXIMUM LIKELIHOOD                 (A): 0.066         
   3   ESU FOR B VALUES BASED ON MAXIMUM LIKELIHOOD (A**2): 3.757         
   3                                                                      
   3 CORRELATION COEFFICIENTS.                                            
   3   CORRELATION COEFFICIENT FO-FC      : 0.957                         
   3   CORRELATION COEFFICIENT FO-FC FREE : 0.943                         
   3                                                                      
   3  RMS DEVIATIONS FROM IDEAL VALUES        COUNT    RMS    WEIGHT      
   3   BOND LENGTHS REFINED ATOMS        (A):  2863 ; 0.010 ; 0.022       
   3   BOND LENGTHS OTHERS               (A):  NULL ;  NULL ;  NULL       
   3   BOND ANGLES REFINED ATOMS   (DEGREES):  3898 ; 1.307 ; 1.979       
   3   BOND ANGLES OTHERS          (DEGREES):  NULL ;  NULL ;  NULL       
   3   TORSION ANGLES, PERIOD 1    (DEGREES):   360 ; 5.976 ; 5.000       
   3   TORSION ANGLES, PERIOD 2    (DEGREES):   128 ;33.936 ;23.750       
   3   TORSION ANGLES, PERIOD 3    (DEGREES):   435 ;13.105 ;15.000       
   3   TORSION ANGLES, PERIOD 4    (DEGREES):    20 ;15.030 ;15.000       
   3   CHIRAL-CENTER RESTRAINTS       (A**3):   419 ; 0.088 ; 0.200       
   3   GENERAL PLANES REFINED ATOMS      (A):  2227 ; 0.005 ; 0.020       
   3   GENERAL PLANES OTHERS             (A):  NULL ;  NULL ;  NULL       
   3   NON-BONDED CONTACTS REFINED ATOMS (A):  1415 ; 0.200 ; 0.200       
   3   NON-BONDED CONTACTS OTHERS        (A):  NULL ;  NULL ;  NULL       
   3   NON-BONDED TORSION REFINED ATOMS  (A):  1968 ; 0.307 ; 0.200       
   3   NON-BONDED TORSION OTHERS         (A):  NULL ;  NULL ;  NULL       
   3   H-BOND (X...Y) REFINED ATOMS      (A):   309 ; 0.157 ; 0.200       
   3   H-BOND (X...Y) OTHERS             (A):  NULL ;  NULL ;  NULL       
   3   POTENTIAL METAL-ION REFINED ATOMS (A):  NULL ;  NULL ;  NULL       
   3   POTENTIAL METAL-ION OTHERS        (A):  NULL ;  NULL ;  NULL       
   3   SYMMETRY VDW REFINED ATOMS        (A):    38 ; 0.152 ; 0.200       
   3   SYMMETRY VDW OTHERS               (A):  NULL ;  NULL ;  NULL       
   3   SYMMETRY H-BOND REFINED ATOMS     (A):    36 ; 0.270 ; 0.200       
   3   SYMMETRY H-BOND OTHERS            (A):  NULL ;  NULL ;  NULL       
   3   SYMMETRY METAL-ION REFINED ATOMS  (A):  NULL ;  NULL ;  NULL       
   3   SYMMETRY METAL-ION OTHERS         (A):  NULL ;  NULL ;  NULL       
   3                                                                      
   3  ISOTROPIC THERMAL FACTOR RESTRAINTS.     COUNT   RMS    WEIGHT      
   3   MAIN-CHAIN BOND REFINED ATOMS  (A**2):  1836 ; 0.652 ; 1.500       
   3   MAIN-CHAIN BOND OTHER ATOMS    (A**2):  NULL ;  NULL ;  NULL       
   3   MAIN-CHAIN ANGLE REFINED ATOMS (A**2):  2862 ; 1.007 ; 2.000       
   3   MAIN-CHAIN ANGLE OTHER ATOMS   (A**2):  NULL ;  NULL ;  NULL       
   3   SIDE-CHAIN BOND REFINED ATOMS  (A**2):  1168 ; 1.898 ; 3.000       
   3   SIDE-CHAIN BOND OTHER ATOMS    (A**2):  NULL ;  NULL ;  NULL       
   3   SIDE-CHAIN ANGLE REFINED ATOMS (A**2):  1036 ; 2.825 ; 4.500       
   3   SIDE-CHAIN ANGLE OTHER ATOMS   (A**2):  NULL ;  NULL ;  NULL       
   3   LONG RANGE B REFINED ATOMS     (A**2):  NULL ;  NULL ;  NULL       
   3   LONG RANGE B OTHER ATOMS       (A**2):  NULL ;  NULL ;  NULL       
   3                                                                      
   3 ANISOTROPIC THERMAL FACTOR RESTRAINTS.    COUNT   RMS   WEIGHT       
   3   RIGID-BOND RESTRAINTS          (A**2):  NULL ;  NULL ;  NULL       
   3   SPHERICITY; FREE ATOMS         (A**2):  NULL ;  NULL ;  NULL       
   3   SPHERICITY; BONDED ATOMS       (A**2):  NULL ;  NULL ;  NULL       
   3                                                                      
   3  NCS RESTRAINTS STATISTICS                                           
   3   NUMBER OF DIFFERENT NCS GROUPS : NULL                              
   3                                                                      
   3  TLS DETAILS                                                         
   3   NUMBER OF TLS GROUPS  : 2                                          
   3                                                                      
   3   TLS GROUP : 1                                                      
   3    NUMBER OF COMPONENTS GROUP : 1                                    
   3    COMPONENTS        C SSSEQI   TO  C SSSEQI                         
   3    RESIDUE RANGE :   A    29        A   388                          
   3    ORIGIN FOR THE GROUP (A):   6.3005   3.1222  17.9391              
   3    T TENSOR                                                          
   3      T11:  -0.1450 T22:  -0.1596                                     
   3      T33:  -0.1041 T12:   0.0029                                     
   3      T13:   0.0018 T23:   0.0057                                     
   3    L TENSOR                                                          
   3      L11:   0.7607 L22:   0.6023                                     
   3      L33:   1.3307 L12:  -0.0078                                     
   3      L13:   0.0020 L23:  -0.0053                                     
   3    S TENSOR                                                          
   3      S11:  -0.0025 S12:  -0.0255 S13:  -0.0192                       
   3      S21:   0.0398 S22:   0.0129 S23:  -0.0294                       
   3      S31:   0.0252 S32:   0.0501 S33:  -0.0103                       
   3                                                                      
   3   TLS GROUP : 2                                                      
   3    NUMBER OF COMPONENTS GROUP : 1                                    
   3    COMPONENTS        C SSSEQI   TO  C SSSEQI                         
   3    RESIDUE RANGE :   A     1        A     1                          
   3    ORIGIN FOR THE GROUP (A):   6.1003  12.9440  18.7507              
   3    T TENSOR                                                          
   3      T11:  -0.0305 T22:  -0.0216                                     
   3      T33:  -0.0068 T12:  -0.0574                                     
   3      T13:  -0.0012 T23:  -0.0055                                     
   3    L TENSOR                                                          
   3      L11:   2.4019 L22:  13.2663                                     
   3      L33:   5.9477 L12:  -5.4890                                     
   3      L13:   1.4146 L23:  -5.1551                                     
   3    S TENSOR                                                          
   3      S11:  -0.4872 S12:   0.4672 S13:   1.3460                       
   3      S21:   0.0726 S22:   0.3684 S23:   0.0398                       
   3      S31:  -0.1652 S32:   0.5973 S33:   0.1188                       
   3                                                                      
   3  BULK SOLVENT MODELLING.                                             
   3   METHOD USED : MASK                                                 
   3   PARAMETERS FOR MASK CALCULATION                                    
   3   VDW PROBE RADIUS   : 1.40                                          
   3   ION PROBE RADIUS   : 0.80                                          
   3   SHRINKAGE RADIUS   : 0.80                                          
   3                                                                      
   3  OTHER REFINEMENT REMARKS: HYDROGENS HAVE BEEN ADDED IN THE RIDING   
   3  POSITIONS                                                           
   4                                                                      
   4 3S22 COMPLIES WITH FORMAT V. 3.30, 13-JUL-11                         
 100                                                                      
 100 THIS ENTRY HAS BEEN PROCESSED BY RCSB ON 19-MAY-11.                  
 100 THE RCSB ID CODE IS RCSB065662.                                      
 200                                                                      
 200 EXPERIMENTAL DETAILS                                                 
 200  EXPERIMENT TYPE                : X-RAY DIFFRACTION                  
 200  DATE OF DATA COLLECTION        : 11-JUL-07                          
 200  TEMPERATURE           (KELVIN) : 100                                
 200  PH                             : 6.5                                
 200  NUMBER OF CRYSTALS USED        : 1                                  
 200                                                                      
 200  SYNCHROTRON              (Y/N) : Y                                  
 200  RADIATION SOURCE               : APS                                
 200  BEAMLINE                       : 17-ID                              
 200  X-RAY GENERATOR MODEL          : NULL                               
 200  MONOCHROMATIC OR LAUE    (M/L) : M                                  
 200  WAVELENGTH OR RANGE        (A) : 1.00                               
 200  MONOCHROMATOR                  : SI (111)                           
 200  OPTICS                         : NULL                               
 200                                                                      
 200  DETECTOR TYPE                  : CCD                                
 200  DETECTOR MANUFACTURER          : ADSC QUANTUM 210                   
 200  INTENSITY-INTEGRATION SOFTWARE : HKL-2000                           
 200  DATA SCALING SOFTWARE          : SCALEPACK                          
 200                                                                      
 200  NUMBER OF UNIQUE REFLECTIONS   : 40341                              
 200  RESOLUTION RANGE HIGH      (A) : 1.650                              
 200  RESOLUTION RANGE LOW       (A) : 50.000                             
 200  REJECTION CRITERIA  (SIGMA(I)) : -3.000                             
 200                                                                      
 200 OVERALL.                                                             
 200  COMPLETENESS FOR RANGE     (%) : 95.8                               
 200  DATA REDUNDANCY                : 3.800                              
 200  R MERGE                    (I) : NULL                               
 200  R SYM                      (I) : 0.12900                            
 200  <I/SIGMA(I)> FOR THE DATA SET  : 6.0000                             
 200                                                                      
 200 IN THE HIGHEST RESOLUTION SHELL.                                     
 200  HIGHEST RESOLUTION SHELL, RANGE HIGH (A) : NULL                     
 200  HIGHEST RESOLUTION SHELL, RANGE LOW  (A) : NULL                     
 200  COMPLETENESS FOR SHELL     (%) : NULL                               
 200  DATA REDUNDANCY IN SHELL       : NULL                               
 200  R MERGE FOR SHELL          (I) : NULL                               
 200  R SYM FOR SHELL            (I) : NULL                               
 200  <I/SIGMA(I)> FOR SHELL         : NULL                               
 200                                                                      
 200 DIFFRACTION PROTOCOL: SINGLE WAVELENGTH                              
 200 METHOD USED TO DETERMINE THE STRUCTURE: FOURIER SYNTHESIS            
 200 SOFTWARE USED: REFMAC 5.2.0019                                       
 200 STARTING MODEL: NULL                                                 
 200                                                                      
 200 REMARK: NULL                                                         
 280                                                                      
 280 CRYSTAL                                                              
 280 SOLVENT CONTENT, VS   (%): 41.49                                     
 280 MATTHEWS COEFFICIENT, VM (ANGSTROMS**3/DA): 2.10                     
 280                                                                      
 280 CRYSTALLIZATION CONDITIONS: 18% PEG 3350, 10% 2-PROPANOL, 100 MM     
 280  IMIDAZOLE, MICRO SEEDING, PH 6.5, VAPOR DIFFUSION, HANGING DROP,    
 280  TEMPERATURE 291K                                                    
 290                                                                      
 290 CRYSTALLOGRAPHIC SYMMETRY                                            
 290 SYMMETRY OPERATORS FOR SPACE GROUP: P 21 21 21                       
 290                                                                      
 290      SYMOP   SYMMETRY                                                
 290     NNNMMM   OPERATOR                                                
 290       1555   X,Y,Z                                                   
 290       2555   -X+1/2,-Y,Z+1/2                                         
 290       3555   -X,Y+1/2,-Z+1/2                                         
 290       4555   X+1/2,-Y+1/2,-Z                                         
 290                                                                      
 290     WHERE NNN -> OPERATOR NUMBER                                     
 290           MMM -> TRANSLATION VECTOR                                  
 290                                                                      
 290 CRYSTALLOGRAPHIC SYMMETRY TRANSFORMATIONS                            
 290 THE FOLLOWING TRANSFORMATIONS OPERATE ON THE ATOM/HETATM             
 290 RECORDS IN THIS ENTRY TO PRODUCE CRYSTALLOGRAPHICALLY                
 290 RELATED MOLECULES.                                                   
 290   SMTRY1   1  1.000000  0.000000  0.000000        0.00000            
 290   SMTRY2   1  0.000000  1.000000  0.000000        0.00000            
 290   SMTRY3   1  0.000000  0.000000  1.000000        0.00000            
 290   SMTRY1   2 -1.000000  0.000000  0.000000       22.44550            
 290   SMTRY2   2  0.000000 -1.000000  0.000000        0.00000            
 290   SMTRY3   2  0.000000  0.000000  1.000000       52.94450            
 290   SMTRY1   3 -1.000000  0.000000  0.000000        0.00000            
 290   SMTRY2   3  0.000000  1.000000  0.000000       35.94550            
 290   SMTRY3   3  0.000000  0.000000 -1.000000       52.94450            
 290   SMTRY1   4  1.000000  0.000000  0.000000       22.44550            
 290   SMTRY2   4  0.000000 -1.000000  0.000000       35.94550            
 290   SMTRY3   4  0.000000  0.000000 -1.000000        0.00000            
 290                                                                      
 290 REMARK: NULL                                                         
 300                                                                      
 300 BIOMOLECULE: 1                                                       
 300 SEE REMARK 350 FOR THE AUTHOR PROVIDED AND/OR PROGRAM                
 300 GENERATED ASSEMBLY INFORMATION FOR THE STRUCTURE IN                  
 300 THIS ENTRY. THE REMARK MAY ALSO PROVIDE INFORMATION ON               
 300 BURIED SURFACE AREA.                                                 
 350                                                                      
 350 COORDINATES FOR A COMPLETE MULTIMER REPRESENTING THE KNOWN           
 350 BIOLOGICALLY SIGNIFICANT OLIGOMERIZATION STATE OF THE                
 350 MOLECULE CAN BE GENERATED BY APPLYING BIOMT TRANSFORMATIONS          
 350 GIVEN BELOW.  BOTH NON-CRYSTALLOGRAPHIC AND                          
 350 CRYSTALLOGRAPHIC OPERATIONS ARE GIVEN.                               
 350                                                                      
 350 BIOMOLECULE: 1                                                       
 350 AUTHOR DETERMINED BIOLOGICAL UNIT: MONOMERIC                         
 350 SOFTWARE DETERMINED QUATERNARY STRUCTURE: MONOMERIC                  
 350 SOFTWARE USED: PISA                                                  
 350 APPLY THE FOLLOWING TO CHAINS: A                                     
 350   BIOMT1   1  1.000000  0.000000  0.000000        0.00000            
 350   BIOMT2   1  0.000000  1.000000  0.000000        0.00000            
 350   BIOMT3   1  0.000000  0.000000  1.000000        0.00000            
 465                                                                      
 465 MISSING RESIDUES                                                     
 465 THE FOLLOWING RESIDUES WERE NOT LOCATED IN THE                       
 465 EXPERIMENT. (M=MODEL NUMBER; RES=RESIDUE NAME; C=CHAIN               
 465 IDENTIFIER; SSSEQ=SEQUENCE NUMBER; I=INSERTION CODE.)                
 465                                                                      
 465   M RES C SSSEQI                                                     
 465     GLY A    27                                                      
 465     GLU A    28                                                      
 465     GLN A   390                                                      
 465     GLY A   391                                                      
 465     LYS A   392                                                      
 465     VAL A   393                                                      
 465     PRO A   394                                                      
 465     LEU A   395                                                      
 465     LYS A   396                                                      
 465     ALA A   397                                                      
 470                                                                      
 470 MISSING ATOM                                                         
 470 THE FOLLOWING RESIDUES HAVE MISSING ATOMS (M=MODEL NUMBER;           
 470 RES=RESIDUE NAME; C=CHAIN IDENTIFIER; SSEQ=SEQUENCE NUMBER;          
 470 I=INSERTION CODE):                                                   
 470   M RES CSSEQI  ATOMS                                                
 470     LYS A  47    CD   CE   NZ                                        
 470     ARG A  79    NE   CZ   NH1  NH2                                  
 470     ASP A 149    CG   OD1  OD2                                       
 470     GLU A 220    CD   OE1  OE2                                       
 470     LYS A 232    CG   CD   CE   NZ                                   
 470     ASP A 233    CG   OD1  OD2                                       
 470     ARG A 235    CD   NE   CZ   NH1  NH2                             
 470     ARG A 284    NE   CZ   NH1  NH2                                  
 470     ARG A 324    CG   CD   NE   CZ   NH1  NH2                        
 470     GLU A 388    CG   CD   OE1  OE2                                  
 470     GLN A 389    CG   CD   OE1  NE2                                  
 500                                                                      
 500 GEOMETRY AND STEREOCHEMISTRY                                         
 500 SUBTOPIC: CLOSE CONTACTS IN SAME ASYMMETRIC UNIT                     
 500                                                                      
 500 THE FOLLOWING ATOMS ARE IN CLOSE CONTACT.                            
 500                                                                      
 500  ATM1  RES C  SSEQI   ATM2  RES C  SSEQI           DISTANCE          
 500   O    HOH A   479     O    HOH A   738              2.15            
 500                                                                      
 500 REMARK: NULL                                                         
 500                                                                      
 500 GEOMETRY AND STEREOCHEMISTRY                                         
 500 SUBTOPIC: CLOSE CONTACTS                                             
 500                                                                      
 500 THE FOLLOWING ATOMS THAT ARE RELATED BY CRYSTALLOGRAPHIC             
 500 SYMMETRY ARE IN CLOSE CONTACT.  AN ATOM LOCATED WITHIN 0.15          
 500 ANGSTROMS OF A SYMMETRY RELATED ATOM IS ASSUMED TO BE ON A           
 500 SPECIAL POSITION AND IS, THEREFORE, LISTED IN REMARK 375             
 500 INSTEAD OF REMARK 500.  ATOMS WITH NON-BLANK ALTERNATE               
 500 LOCATION INDICATORS ARE NOT INCLUDED IN THE CALCULATIONS.            
 500                                                                      
 500 DISTANCE CUTOFF:                                                     
 500 2.2 ANGSTROMS FOR CONTACTS NOT INVOLVING HYDROGEN ATOMS              
 500 1.6 ANGSTROMS FOR CONTACTS INVOLVING HYDROGEN ATOMS                  
 500                                                                      
 500  ATM1  RES C  SSEQI   ATM2  RES C  SSEQI  SSYMOP   DISTANCE          
 500   NE2  GLN A   337     O    HOH A   534     3545     1.86            
 500   O    HOH A   451     O    HOH A   737     1655     2.19            
 500                                                                      
 500 REMARK: NULL                                                         
 500                                                                      
 500 GEOMETRY AND STEREOCHEMISTRY                                         
 500 SUBTOPIC: TORSION ANGLES                                             
 500                                                                      
 500 TORSION ANGLES OUTSIDE THE EXPECTED RAMACHANDRAN REGIONS:            
 500 (M=MODEL NUMBER; RES=RESIDUE NAME; C=CHAIN IDENTIFIER;               
 500 SSEQ=SEQUENCE NUMBER; I=INSERTION CODE).                             
 500                                                                      
 500 STANDARD TABLE:                                                      
 500 FORMAT:(10X,I3,1X,A3,1X,A1,I4,A1,4X,F7.2,3X,F7.2)                    
 500                                                                      
 500 EXPECTED VALUES: GJ KLEYWEGT AND TA JONES (1996). PHI/PSI-           
 500 CHOLOGY: RAMACHANDRAN REVISITED. STRUCTURE 4, 1395 - 1400            
 500                                                                      
 500  M RES CSSEQI        PSI       PHI                                   
 500    TYR A 249       26.64   -157.85                                   
 500                                                                      
 500 REMARK: NULL                                                         
 525                                                                      
 525 SOLVENT                                                              
 525                                                                      
 525 THE SOLVENT MOLECULES HAVE CHAIN IDENTIFIERS THAT                    
 525 INDICATE THE POLYMER CHAIN WITH WHICH THEY ARE MOST                  
 525 CLOSELY ASSOCIATED. THE REMARK LISTS ALL THE SOLVENT                 
 525 MOLECULES WHICH ARE MORE THAN 5A AWAY FROM THE                       
 525 NEAREST POLYMER CHAIN (M = MODEL NUMBER;                             
 525 RES=RESIDUE NAME; C=CHAIN IDENTIFIER; SSEQ=SEQUENCE                  
 525 NUMBER; I=INSERTION CODE):                                           
 525                                                                      
 525  M RES CSSEQI                                                        
 525    HOH A 732        DISTANCE =  5.77 ANGSTROMS                       
 600                                                                      
 600 HETEROGEN                                                            
 600 THE STARTING MATERIAL IS A CLOSED RING BETA-LACTAMASE INHIBITOR,     
 600 THAT REACTS WITH SER90 TO BECOME THE OPEN RING COMPOUND, 3S2         
 800                                                                      
 800 SITE                                                                 
 800 SITE_IDENTIFIER: AC1                                                 
 800 EVIDENCE_CODE: SOFTWARE                                              
 800 SITE_DESCRIPTION: BINDING SITE FOR RESIDUE 3S2 A 1                   
 800                                                                      
 800 SITE_IDENTIFIER: AC2                                                 
 800 EVIDENCE_CODE: SOFTWARE                                              
 800 SITE_DESCRIPTION: BINDING SITE FOR RESIDUE CL A 398                  
 900                                                                      
 900 RELATED ENTRIES                                                      
 900 RELATED ID: 3S1Y   RELATED DB: PDB                                   
 900 RELATED ID: 2WZX   RELATED DB: PDB                                   
 900 RELATED ID: 2WZZ   RELATED DB: PDB                                   

>  <DBREF>  (1) 
 3S22 A   27   397  UNP    P24735   AMPC_PSEAE      27    397             

>  <SEQADV>  (1) 
 3S22 ALA A  397  UNP  P24735    ARG   397 ENGINEERED MUTATION            

>  <SEQRES>  (1) 
   1 A  371  GLY GLU ALA PRO ALA ASP ARG LEU LYS ALA LEU VAL ASP          
   2 A  371  ALA ALA VAL GLN PRO VAL MET LYS ALA ASN ASP ILE PRO          
   3 A  371  GLY LEU ALA VAL ALA ILE SER LEU LYS GLY GLU PRO HIS          
   4 A  371  TYR PHE SER TYR GLY LEU ALA SER LYS GLU ASP GLY ARG          
   5 A  371  ARG VAL THR PRO GLU THR LEU PHE GLU ILE GLY SER VAL          
   6 A  371  SER LYS THR PHE THR ALA THR LEU ALA GLY TYR ALA LEU          
   7 A  371  THR GLN ASP LYS MET ARG LEU ASP ASP ARG ALA SER GLN          
   8 A  371  HIS TRP PRO ALA LEU GLN GLY SER ARG PHE ASP GLY ILE          
   9 A  371  SER LEU LEU ASP LEU ALA THR TYR THR ALA GLY GLY LEU          
  10 A  371  PRO LEU GLN PHE PRO ASP SER VAL GLN LYS ASP GLN ALA          
  11 A  371  GLN ILE ARG ASP TYR TYR ARG GLN TRP GLN PRO THR TYR          
  12 A  371  ALA PRO GLY SER GLN ARG LEU TYR SER ASN PRO SER ILE          
  13 A  371  GLY LEU PHE GLY TYR LEU ALA ALA ARG SER LEU GLY GLN          
  14 A  371  PRO PHE GLU ARG LEU MET GLU GLN GLN VAL PHE PRO ALA          
  15 A  371  LEU GLY LEU GLU GLN THR HIS LEU ASP VAL PRO GLU ALA          
  16 A  371  ALA LEU ALA GLN TYR ALA GLN GLY TYR GLY LYS ASP ASP          
  17 A  371  ARG PRO LEU ARG VAL GLY PRO GLY PRO LEU ASP ALA GLU          
  18 A  371  GLY TYR GLY VAL LYS THR SER ALA ALA ASP LEU LEU ARG          
  19 A  371  PHE VAL ASP ALA ASN LEU HIS PRO GLU ARG LEU ASP ARG          
  20 A  371  PRO TRP ALA GLN ALA LEU ASP ALA THR HIS ARG GLY TYR          
  21 A  371  TYR LYS VAL GLY ASP MET THR GLN GLY LEU GLY TRP GLU          
  22 A  371  ALA TYR ASP TRP PRO ILE SER LEU LYS ARG LEU GLN ALA          
  23 A  371  GLY ASN SER THR PRO MET ALA LEU GLN PRO HIS ARG ILE          
  24 A  371  ALA ARG LEU PRO ALA PRO GLN ALA LEU GLU GLY GLN ARG          
  25 A  371  LEU LEU ASN LYS THR GLY SER THR ASN GLY PHE GLY ALA          
  26 A  371  TYR VAL ALA PHE VAL PRO GLY ARG ASP LEU GLY LEU VAL          
  27 A  371  ILE LEU ALA ASN ARG ASN TYR PRO ASN ALA GLU ARG VAL          
  28 A  371  LYS ILE ALA TYR ALA ILE LEU SER GLY LEU GLU GLN GLN          
  29 A  371  GLY LYS VAL PRO LEU LYS ALA                                  

>  <HET>  (1) 
 3S2  A   1      21                                                       
  CL  A 398       1                                                       

>  <HETNAM>  (1) 
     3S2 [(2S,3R)-2-FORMYL-1-{[4-(METHYLAMINO)                            
   2 3S2  BUTYL]CARBAMOYL}PYRROLIDIN-3-YL]SULFAMIC ACID                   
      CL CHLORIDE ION                                                     

>  <FORMUL>  (1) 
   2  3S2    C11 H22 N4 O5 S                                              
   3   CL    CL 1-                                                        
   4  HOH   *386(H2 O)                                                    

>  <HELIX>  (1) 
   1   1 ALA A   29  ASN A   49  1                                  21    
   2   2 VAL A   91  GLN A  106  1                                  16    
   3   3 ARG A  114  GLN A  123  5                                  10    
   4   4 SER A  125  ILE A  130  5                                   6    
   5   5 SER A  131  THR A  137  1                                   7    
   6   6 ASP A  154  TRP A  165  1                                  12    
   7   7 SER A  178  GLY A  194  1                                  17    
   8   8 PRO A  196  GLN A  204  1                                   9    
   9   9 GLN A  204  LEU A  209  1                                   6    
  10  10 PRO A  219  TYR A  226  5                                   8    
  11  11 LYS A  232  ASP A  234  5                                   3    
  12  12 LEU A  244  GLY A  250  1                                   7    
  13  13 SER A  254  HIS A  267  1                                  14    
  14  14 PRO A  268  LEU A  271  5                                   4    
  15  15 ASP A  272  ALA A  281  1                                  10    
  16  16 SER A  306  ASN A  314  1                                   9    
  17  17 SER A  315  GLN A  321  1                                   7    
  18  18 PRO A  357  ASP A  360  5                                   4    
  19  19 PRO A  372  GLN A  389  1                                  18    

>  <SHEET>  (1) 
   1   A 9 GLU A  63  GLY A  70  0                                        
   2   A 9 GLY A  53  LEU A  60 -1  N  VAL A  56   O  PHE A  67           
   3   A 9 LEU A 361  ALA A 367 -1  O  LEU A 366   N  ALA A  55           
   4   A 9 PHE A 349  VAL A 356 -1  N  VAL A 356   O  LEU A 361           
   5   A 9 ARG A 338  THR A 346 -1  N  GLY A 344   O  ALA A 351           
   6   A 9 GLU A 299  ASP A 302 -1  N  GLU A 299   O  ASN A 341           
   7   A 9 MET A 292  GLN A 294 -1  N  THR A 293   O  ALA A 300           
   8   A 9 ARG A 284  VAL A 289 -1  N  TYR A 286   O  GLN A 294           
   9   A 9 ALA A 326  ALA A 333 -1  O  GLN A 332   N  GLY A 285           
   1   B 3 PHE A  86  GLU A  87  0                                        
   2   B 3 LYS A 252  THR A 253 -1  O  THR A 253   N  PHE A  86           
   3   B 3 THR A 214  HIS A 215 -1  N  HIS A 215   O  LYS A 252           
   1   C 2 GLN A 174  ARG A 175  0                                        
   2   C 2 HIS A 323  ARG A 324 -1  O  HIS A 323   N  ARG A 175           
   1   D 2 GLY A 229  TYR A 230  0                                        
   2   D 2 PRO A 236  LEU A 237 -1  O  LEU A 237   N  GLY A 229           

>  <LINK>  (1) 
       OG  SER A  90                 C8  3S2 A   1     1555   1555  1.35  

>  <CISPEP>  (1) 
   1 TRP A  303    PRO A  304          0         3.14                     

>  <SITE>  (1) 
   1 AC1 15 SER A  90  GLN A 146  TYR A 177  ASN A 179                    
   2 AC1 15 TYR A 249  ALA A 319  LYS A 342  THR A 343                    
   3 AC1 15 GLY A 344  SER A 345   CL A 398  HOH A 413                    
   4 AC1 15 HOH A 535  HOH A 549  HOH A 697                               
   1 AC2  6 3S2 A   1  GLN A 146  PHE A 147  ASN A 179                    
   2 AC2  6 HOH A 414  HOH A 697                                          

>  <ORIGX1>  (1) 
      1.000000  0.000000  0.000000        0.00000                         

>  <ORIGX2>  (1) 
      0.000000  1.000000  0.000000        0.00000                         

>  <ORIGX3>  (1) 
      0.000000  0.000000  1.000000        0.00000                         

>  <SCALE1>  (1) 
      0.022276  0.000000  0.000000        0.00000                         

>  <SCALE2>  (1) 
      0.000000  0.013910  0.000000        0.00000                         

>  <SCALE3>  (1) 
      0.000000  0.000000  0.009444        0.00000                         

>  <ANISOU>  (1) 
  455  N   SER A  90     1147    968   1547    -38     25     39       N  
  456  CA  SER A  90     1215   1042   1606    -18     19     34       C  
  457  C   SER A  90     1166   1021   1574      0     20     43       C  
  458  O   SER A  90     1199   1056   1597     11     15     45       O  
  459  CB  SER A  90     1198    983   1558     -3     26     32       C  
  460  OG  SER A  90     1469   1208   1798    -15     23     16       O  
 2773  C4  3S2 A   1     3105   4004   5428  -1160   -660    195       C  
 2774  C5  3S2 A   1     2803   3760   4878  -1201   -372    501       C  
 2775  C6  3S2 A   1     3387   3817   6286  -1353  -1096    148       C  
 2776  C7  3S2 A   1     2413   3411   3627   -962   -106    398       C  
 2777  C8  3S2 A   1     1843   1912   1033   -356    198   -186       C  
 2778  C10 3S2 A   1     1798   1675   1560   -337    147   -232       C  
 2779  N12 3S2 A   1     3751   3658   6386  -1173  -1481   -310       N  
 2780  C1  3S2 A   1     4071   3750   7509  -1459  -2034   -245       C  
 2781  C2  3S2 A   1     2030   1845   2433   -634    -56    287       C  
 2782  C3  3S2 A   1     2141   2089   2708   -715    -90    240       C  
 2783  C9  3S2 A   1     1922   1611   2009   -364    137    -24       C  
 2784  C11 3S2 A   1     1987   2357   2268   -626    -23    -49       C  
 2785  N13 3S2 A   1     1940   2472   2797   -863   -129    227       N  
 2786  N14 3S2 A   1     2245   1903   1992   -328    178     -7       N  
 2787  N15 3S2 A   1     2010   2059   2206   -559      2    -46       N  
 2788  O16 3S2 A   1     2833   2397   2957   -727   -335    570       O  
 2789  O17 3S2 A   1     1810   1931    820   -491    123     65       O  
 2790  O18 3S2 A   1     2110   2631   2061   -474     55   -241       O  
 2791  O19 3S2 A   1     2492   1994   3490   -324    171    457       O  
 2792  O20 3S2 A   1     2464   1904   2499   -386     74    286       O  
 2793  S21 3S2 A   1     2403   1965   2691   -446     37    326       S  

>  <MASTER>  (1) 
      385    0    2   19   16    0    6    6 3164    1   22   29          

$$$$
