start_structures/Ligand_Substrate/Ligand_Complex_Stripped/1RG_3M6B.pdb
     RDKit          3D

 39 41  0  0  1  0  0  0  0  0999 V2000
   48.7968   51.8771   46.3360 N   0  0  0  0  0  0  0  0  0  0  0  0
   47.4472   51.3817   46.5440 C   0  0  2  0  0  0  0  0  0  0  0  0
   47.4043   49.8866   46.4404 C   0  0  0  0  0  0  0  0  0  0  0  0
   46.4740   49.2682   46.9367 O   0  0  0  0  0  0  0  0  0  0  0  0
   46.5150   52.0026   45.5103 C   0  0  0  0  0  0  0  0  0  0  0  0
   46.1627   53.3338   45.8725 O   0  0  0  0  0  0  0  0  0  0  0  0
   48.0430   53.5402   55.3004 C   0  0  0  0  0  0  0  0  0  0  0  0
   46.9508   52.0680   53.7095 N   0  0  0  0  0  0  0  0  0  0  0  0
   46.9984   53.9759   55.8569 O   0  0  0  0  0  0  0  0  0  0  0  0
   47.9933   53.0746   53.8833 C   0  0  1  0  0  0  0  0  0  0  0  0
   47.7046   54.2279   52.9518 C   0  0  0  0  0  0  0  0  0  0  0  0
   46.1923   52.4386   52.5190 C   0  0  0  0  0  0  0  0  0  0  0  0
   46.8822   53.6096   51.8588 C   0  0  1  0  0  0  0  0  0  0  0  0
   45.2547   53.6131   46.8982 C   0  0  0  0  0  0  0  0  0  0  0  0
   44.9927   55.0363   47.3002 C   0  0  1  0  0  0  0  0  0  0  0  0
   44.6548   52.6817   47.4995 O   0  0  0  0  0  0  0  0  0  0  0  0
   46.2914   55.7027   47.7986 C   0  0  2  0  0  0  0  0  0  0  0  0
   44.3637   55.8059   46.1250 C   0  0  1  0  0  0  0  0  0  0  0  0
   43.0543   55.1673   45.6907 C   0  0  0  0  0  0  0  0  0  0  0  0
   44.1088   57.1324   46.4751 O   0  0  0  0  0  0  0  0  0  0  0  0
   46.9842   54.8548   48.8736 C   0  0  2  0  0  0  0  0  0  0  0  0
   46.8434   55.6407   50.1702 C   0  0  2  0  0  0  0  0  0  0  0  0
   45.9924   56.9642   48.4550 N   0  0  0  0  0  0  0  0  0  0  0  0
   45.6474   54.7957   51.2524 S   0  0  0  0  0  0  0  0  0  0  0  0
   46.2783   56.9332   49.7092 C   0  0  0  0  0  0  0  0  0  0  0  0
   46.0874   58.1023   50.5766 C   0  0  0  0  0  0  0  0  0  0  0  0
   48.4531   54.7041   48.5303 C   0  0  0  0  0  0  0  0  0  0  0  0
   46.4181   58.0536   51.7905 O   0  0  0  0  0  0  0  0  0  0  0  0
   45.5432   59.2721   50.0610 O   0  0  0  0  0  0  0  0  0  0  0  0
   49.2923   53.4948   56.0013 N   0  0  0  0  0  0  0  0  0  0  0  0
   49.5323   53.9057   57.3540 C   0  0  0  0  0  0  0  0  0  0  0  0
   48.5106   54.4207   58.1662 C   0  0  0  0  0  0  0  0  0  0  0  0
   48.7742   54.8147   59.4846 C   0  0  0  0  0  0  0  0  0  0  0  0
   50.0752   54.6900   59.9908 C   0  0  0  0  0  0  0  0  0  0  0  0
   51.0975   54.1781   59.1879 C   0  0  0  0  0  0  0  0  0  0  0  0
   50.8252   53.7877   57.8741 C   0  0  0  0  0  0  0  0  0  0  0  0
   47.6923   55.3532   60.3242 C   0  0  0  0  0  0  0  0  0  0  0  0
   47.9217   55.7095   61.5107 O   0  0  0  0  0  0  0  0  0  0  0  0
   46.4045   55.4739   59.8148 O   0  0  0  0  0  0  0  0  0  0  0  0
  2  1  1  6
  2  3  1  0
  3  4  2  0
  5  2  1  0
  6 14  1  0
  6  5  1  0
  7  9  2  0
  7 30  1  0
  8 10  1  0
  8 12  1  0
 10  7  1  1
 10 11  1  0
 11 13  1  0
 12 13  1  0
 13 24  1  1
 14 16  2  0
 15 14  1  6
 15 18  1  0
 17 15  1  0
 17 21  1  0
 17 23  1  6
 18 19  1  1
 18 20  1  0
 21 22  1  0
 21 27  1  6
 22 24  1  1
 22 25  1  0
 23 25  2  0
 25 26  1  0
 26 28  2  0
 26 29  1  0
 30 31  1  0
 31 32  2  0
 31 36  1  0
 32 33  1  0
 33 34  2  0
 33 37  1  0
 34 35  1  0
 35 36  2  0
 37 38  2  0
 37 39  1  0
M  END
>  <HEADER>  (1) 
    HYDROLASE/ANTIBIOTIC                    15-MAR-10   3M6B              

>  <TITLE>  (1) 
    CRYSTAL STRUCTURE OF THE ERTAPENEM PRE-ISOMERIZED COVALENT ADDUCT WITH
   2 TB B-LACTAMASE                                                       

>  <COMPND>  (1) 
    MOL_ID: 1;                                                            
   2 MOLECULE: BETA-LACTAMASE;                                            
   3 CHAIN: A;                                                            
   4 SYNONYM: PENICILLINASE;                                              
   5 EC: 3.5.2.6;                                                         
   6 ENGINEERED: YES                                                      

>  <SOURCE>  (1) 
    MOL_ID: 1;                                                            
   2 ORGANISM_SCIENTIFIC: MYCOBACTERIUM TUBERCULOSIS;                     
   3 ORGANISM_TAXID: 1773;                                                
   4 GENE: BLAA, BLAC, RV2068C, MT2128, MTCY49.07C;                       
   5 EXPRESSION_SYSTEM: ESCHERICHIA COLI;                                 
   6 EXPRESSION_SYSTEM_TAXID: 562;                                        
   7 EXPRESSION_SYSTEM_STRAIN: BL21(DE3);                                 
   8 EXPRESSION_SYSTEM_VECTOR_TYPE: PLASMID;                              
   9 EXPRESSION_SYSTEM_PLASMID: PET28                                     

>  <KEYWDS>  (1) 
    ALPHA-BETA STRUCTURE, ANTIBIOTIC RESISTANCE, CELL MEMBRANE,           
   2 HYDROLASE, LIPOPROTEIN, MEMBRANE, PALMITATE, HYDROLASE-ANTIBIOTIC    
   3 COMPLEX                                                              

>  <EXPDTA>  (1) 
    X-RAY DIFFRACTION                                                     

>  <AUTHOR>  (1) 
    L.W.TREMBLAY,F.FAN,J.S.BLANCHARD                                      

>  <REVDAT>  (1) 
   5   08-NOV-17 3M6B    1       REMARK                                   
   4   16-MAY-12 3M6B    1       HEADER KEYWDS HETSYN VERSN               
   3   12-MAY-10 3M6B    1       JRNL                                     
   2   21-APR-10 3M6B    1       JRNL                                     
   1   14-APR-10 3M6B    0                                                

>  <JRNL>  (1) 
      AUTH   L.W.TREMBLAY,F.FAN,J.S.BLANCHARD                             
      TITL   BIOCHEMICAL AND STRUCTURAL CHARACTERIZATION OF MYCOBACTERIUM 
      TITL 2 TUBERCULOSIS BETA-LACTAMASE WITH THE CARBAPENEMS ERTAPENEM   
      TITL 3 AND DORIPENEM.                                               
      REF    BIOCHEMISTRY                  V.  49  3766 2010              
      REFN                   ISSN 0006-2960                               
      PMID   20353175                                                     
      DOI    10.1021/BI100232Q                                            

>  <REMARK>  (1) 
   2                                                                      
   2 RESOLUTION.    1.30 ANGSTROMS.                                       
   3                                                                      
   3 REFINEMENT.                                                          
   3   PROGRAM     : REFMAC 5.5.0102                                      
   3   AUTHORS     : MURSHUDOV,VAGIN,DODSON                               
   3                                                                      
   3    REFINEMENT TARGET : MAXIMUM LIKELIHOOD                            
   3                                                                      
   3  DATA USED IN REFINEMENT.                                            
   3   RESOLUTION RANGE HIGH (ANGSTROMS) : 1.30                           
   3   RESOLUTION RANGE LOW  (ANGSTROMS) : 26.28                          
   3   DATA CUTOFF            (SIGMA(F)) : 0.000                          
   3   COMPLETENESS FOR RANGE        (%) : 100.0                          
   3   NUMBER OF REFLECTIONS             : 60263                          
   3                                                                      
   3  FIT TO DATA USED IN REFINEMENT.                                     
   3   CROSS-VALIDATION METHOD          : THROUGHOUT                      
   3   FREE R VALUE TEST SET SELECTION  : RANDOM                          
   3   R VALUE     (WORKING + TEST SET) : 0.149                           
   3   R VALUE            (WORKING SET) : 0.147                           
   3   FREE R VALUE                     : 0.176                           
   3   FREE R VALUE TEST SET SIZE   (%) : 5.100                           
   3   FREE R VALUE TEST SET COUNT      : 3222                            
   3                                                                      
   3  FIT IN THE HIGHEST RESOLUTION BIN.                                  
   3   TOTAL NUMBER OF BINS USED           : 20                           
   3   BIN RESOLUTION RANGE HIGH       (A) : 1.30                         
   3   BIN RESOLUTION RANGE LOW        (A) : 1.33                         
   3   REFLECTION IN BIN     (WORKING SET) : 4388                         
   3   BIN COMPLETENESS (WORKING+TEST) (%) : 99.96                        
   3   BIN R VALUE           (WORKING SET) : 0.2650                       
   3   BIN FREE R VALUE SET COUNT          : 235                          
   3   BIN FREE R VALUE                    : 0.2780                       
   3                                                                      
   3  NUMBER OF NON-HYDROGEN ATOMS USED IN REFINEMENT.                    
   3   PROTEIN ATOMS            : 1988                                    
   3   NUCLEIC ACID ATOMS       : 0                                       
   3   HETEROGEN ATOMS          : 61                                      
   3   SOLVENT ATOMS            : 297                                     
   3                                                                      
   3  B VALUES.                                                           
   3   FROM WILSON PLOT           (A**2) : NULL                           
   3   MEAN B VALUE      (OVERALL, A**2) : 13.29                          
   3   OVERALL ANISOTROPIC B VALUE.                                       
   3    B11 (A**2) : 0.03000                                              
   3    B22 (A**2) : -0.04000                                             
   3    B33 (A**2) : 0.02000                                              
   3    B12 (A**2) : 0.00000                                              
   3    B13 (A**2) : 0.00000                                              
   3    B23 (A**2) : 0.00000                                              
   3                                                                      
   3  ESTIMATED OVERALL COORDINATE ERROR.                                 
   3   ESU BASED ON R VALUE                            (A): 0.048         
   3   ESU BASED ON FREE R VALUE                       (A): 0.046         
   3   ESU BASED ON MAXIMUM LIKELIHOOD                 (A): 0.026         
   3   ESU FOR B VALUES BASED ON MAXIMUM LIKELIHOOD (A**2): 1.384         
   3                                                                      
   3 CORRELATION COEFFICIENTS.                                            
   3   CORRELATION COEFFICIENT FO-FC      : 0.972                         
   3   CORRELATION COEFFICIENT FO-FC FREE : 0.960                         
   3                                                                      
   3  RMS DEVIATIONS FROM IDEAL VALUES        COUNT    RMS    WEIGHT      
   3   BOND LENGTHS REFINED ATOMS        (A):  2109 ; 0.010 ; 0.022       
   3   BOND LENGTHS OTHERS               (A):  NULL ;  NULL ;  NULL       
   3   BOND ANGLES REFINED ATOMS   (DEGREES):  2887 ; 1.428 ; 1.994       
   3   BOND ANGLES OTHERS          (DEGREES):  NULL ;  NULL ;  NULL       
   3   TORSION ANGLES, PERIOD 1    (DEGREES):   270 ; 6.091 ; 5.000       
   3   TORSION ANGLES, PERIOD 2    (DEGREES):    90 ;38.298 ;23.111       
   3   TORSION ANGLES, PERIOD 3    (DEGREES):   309 ;11.508 ;15.000       
   3   TORSION ANGLES, PERIOD 4    (DEGREES):    20 ;21.341 ;15.000       
   3   CHIRAL-CENTER RESTRAINTS       (A**3):   323 ; 0.087 ; 0.200       
   3   GENERAL PLANES REFINED ATOMS      (A):  1631 ; 0.008 ; 0.021       
   3   GENERAL PLANES OTHERS             (A):  NULL ;  NULL ;  NULL       
   3   NON-BONDED CONTACTS REFINED ATOMS (A):  NULL ;  NULL ;  NULL       
   3   NON-BONDED CONTACTS OTHERS        (A):  NULL ;  NULL ;  NULL       
   3   NON-BONDED TORSION REFINED ATOMS  (A):  NULL ;  NULL ;  NULL       
   3   NON-BONDED TORSION OTHERS         (A):  NULL ;  NULL ;  NULL       
   3   H-BOND (X...Y) REFINED ATOMS      (A):  NULL ;  NULL ;  NULL       
   3   H-BOND (X...Y) OTHERS             (A):  NULL ;  NULL ;  NULL       
   3   POTENTIAL METAL-ION REFINED ATOMS (A):  NULL ;  NULL ;  NULL       
   3   POTENTIAL METAL-ION OTHERS        (A):  NULL ;  NULL ;  NULL       
   3   SYMMETRY VDW REFINED ATOMS        (A):  NULL ;  NULL ;  NULL       
   3   SYMMETRY VDW OTHERS               (A):  NULL ;  NULL ;  NULL       
   3   SYMMETRY H-BOND REFINED ATOMS     (A):  NULL ;  NULL ;  NULL       
   3   SYMMETRY H-BOND OTHERS            (A):  NULL ;  NULL ;  NULL       
   3   SYMMETRY METAL-ION REFINED ATOMS  (A):  NULL ;  NULL ;  NULL       
   3   SYMMETRY METAL-ION OTHERS         (A):  NULL ;  NULL ;  NULL       
   3                                                                      
   3  ISOTROPIC THERMAL FACTOR RESTRAINTS.     COUNT   RMS    WEIGHT      
   3   MAIN-CHAIN BOND REFINED ATOMS  (A**2):  1336 ; 1.198 ; 1.500       
   3   MAIN-CHAIN BOND OTHER ATOMS    (A**2):  NULL ;  NULL ;  NULL       
   3   MAIN-CHAIN ANGLE REFINED ATOMS (A**2):  2141 ; 1.959 ; 2.000       
   3   MAIN-CHAIN ANGLE OTHER ATOMS   (A**2):  NULL ;  NULL ;  NULL       
   3   SIDE-CHAIN BOND REFINED ATOMS  (A**2):   773 ; 3.009 ; 3.000       
   3   SIDE-CHAIN BOND OTHER ATOMS    (A**2):  NULL ;  NULL ;  NULL       
   3   SIDE-CHAIN ANGLE REFINED ATOMS (A**2):   743 ; 4.451 ; 4.500       
   3   SIDE-CHAIN ANGLE OTHER ATOMS   (A**2):  NULL ;  NULL ;  NULL       
   3   LONG RANGE B REFINED ATOMS     (A**2):  NULL ;  NULL ;  NULL       
   3   LONG RANGE B OTHER ATOMS       (A**2):  NULL ;  NULL ;  NULL       
   3                                                                      
   3 ANISOTROPIC THERMAL FACTOR RESTRAINTS.    COUNT   RMS   WEIGHT       
   3   RIGID-BOND RESTRAINTS          (A**2):  2109 ; 1.292 ; 3.000       
   3   SPHERICITY; FREE ATOMS         (A**2):  NULL ;  NULL ;  NULL       
   3   SPHERICITY; BONDED ATOMS       (A**2):  NULL ;  NULL ;  NULL       
   3                                                                      
   3  NCS RESTRAINTS STATISTICS                                           
   3   NUMBER OF DIFFERENT NCS GROUPS : NULL                              
   3                                                                      
   3  TLS DETAILS                                                         
   3   NUMBER OF TLS GROUPS  : NULL                                       
   3                                                                      
   3  BULK SOLVENT MODELLING.                                             
   3   METHOD USED : MASK                                                 
   3   PARAMETERS FOR MASK CALCULATION                                    
   3   VDW PROBE RADIUS   : 1.40                                          
   3   ION PROBE RADIUS   : 0.80                                          
   3   SHRINKAGE RADIUS   : 0.80                                          
   3                                                                      
   3  OTHER REFINEMENT REMARKS: HYDROGENS HAVE BEEN ADDED IN THE RIDING   
   3  POSITIONS. U VALUES REFINED INDIVIDUALLY                            
   4                                                                      
   4 3M6B COMPLIES WITH FORMAT V. 3.30, 13-JUL-11                         
 100                                                                      
 100 THIS ENTRY HAS BEEN PROCESSED BY RCSB ON 25-MAR-10.                  
 100 THE DEPOSITION ID IS D_1000058162.                                   
 200                                                                      
 200 EXPERIMENTAL DETAILS                                                 
 200  EXPERIMENT TYPE                : X-RAY DIFFRACTION                  
 200  DATE OF DATA COLLECTION        : 21-JAN-10                          
 200  TEMPERATURE           (KELVIN) : 100                                
 200  PH                             : 4.1                                
 200  NUMBER OF CRYSTALS USED        : 1                                  
 200                                                                      
 200  SYNCHROTRON              (Y/N) : Y                                  
 200  RADIATION SOURCE               : NSLS                               
 200  BEAMLINE                       : X12C                               
 200  X-RAY GENERATOR MODEL          : NULL                               
 200  MONOCHROMATIC OR LAUE    (M/L) : M                                  
 200  WAVELENGTH OR RANGE        (A) : 1.100                              
 200  MONOCHROMATOR                  : GRAPHITE                           
 200  OPTICS                         : NULL                               
 200                                                                      
 200  DETECTOR TYPE                  : CCD                                
 200  DETECTOR MANUFACTURER          : ADSC QUANTUM 210                   
 200  INTENSITY-INTEGRATION SOFTWARE : DENZO                              
 200  DATA SCALING SOFTWARE          : SCALEPACK                          
 200                                                                      
 200  NUMBER OF UNIQUE REFLECTIONS   : 63485                              
 200  RESOLUTION RANGE HIGH      (A) : 1.300                              
 200  RESOLUTION RANGE LOW       (A) : 50.000                             
 200  REJECTION CRITERIA  (SIGMA(I)) : NULL                               
 200                                                                      
 200 OVERALL.                                                             
 200  COMPLETENESS FOR RANGE     (%) : 100.0                              
 200  DATA REDUNDANCY                : 7.500                              
 200  R MERGE                    (I) : 0.05700                            
 200  R SYM                      (I) : NULL                               
 200  <I/SIGMA(I)> FOR THE DATA SET  : 21.4000                            
 200                                                                      
 200 IN THE HIGHEST RESOLUTION SHELL.                                     
 200  HIGHEST RESOLUTION SHELL, RANGE HIGH (A) : 1.30                     
 200  HIGHEST RESOLUTION SHELL, RANGE LOW  (A) : 1.33                     
 200  COMPLETENESS FOR SHELL     (%) : 100.0                              
 200  DATA REDUNDANCY IN SHELL       : 5.70                               
 200  R MERGE FOR SHELL          (I) : 0.75700                            
 200  R SYM FOR SHELL            (I) : NULL                               
 200  <I/SIGMA(I)> FOR SHELL         : 1.800                              
 200                                                                      
 200 DIFFRACTION PROTOCOL: SINGLE WAVELENGTH                              
 200 METHOD USED TO DETERMINE THE STRUCTURE: MOLECULAR REPLACEMENT        
 200 SOFTWARE USED: NULL                                                  
 200 STARTING MODEL: PDB ENTRY 3DWZ                                       
 200                                                                      
 200 REMARK: NULL                                                         
 280                                                                      
 280 CRYSTAL                                                              
 280 SOLVENT CONTENT, VS   (%): 45.41                                     
 280 MATTHEWS COEFFICIENT, VM (ANGSTROMS**3/DA): 2.25                     
 280                                                                      
 280 CRYSTALLIZATION CONDITIONS: 0.1 M HEPES, 2 M NH4(H2)PO4, PH 4.1,     
 280  HANGING DROP, TEMPERATURE 298K                                      
 290                                                                      
 290 CRYSTALLOGRAPHIC SYMMETRY                                            
 290 SYMMETRY OPERATORS FOR SPACE GROUP: P 21 21 21                       
 290                                                                      
 290      SYMOP   SYMMETRY                                                
 290     NNNMMM   OPERATOR                                                
 290       1555   X,Y,Z                                                   
 290       2555   -X+1/2,-Y,Z+1/2                                         
 290       3555   -X,Y+1/2,-Z+1/2                                         
 290       4555   X+1/2,-Y+1/2,-Z                                         
 290                                                                      
 290     WHERE NNN -> OPERATOR NUMBER                                     
 290           MMM -> TRANSLATION VECTOR                                  
 290                                                                      
 290 CRYSTALLOGRAPHIC SYMMETRY TRANSFORMATIONS                            
 290 THE FOLLOWING TRANSFORMATIONS OPERATE ON THE ATOM/HETATM             
 290 RECORDS IN THIS ENTRY TO PRODUCE CRYSTALLOGRAPHICALLY                
 290 RELATED MOLECULES.                                                   
 290   SMTRY1   1  1.000000  0.000000  0.000000        0.00000            
 290   SMTRY2   1  0.000000  1.000000  0.000000        0.00000            
 290   SMTRY3   1  0.000000  0.000000  1.000000        0.00000            
 290   SMTRY1   2 -1.000000  0.000000  0.000000       24.82850            
 290   SMTRY2   2  0.000000 -1.000000  0.000000        0.00000            
 290   SMTRY3   2  0.000000  0.000000  1.000000       37.77300            
 290   SMTRY1   3 -1.000000  0.000000  0.000000        0.00000            
 290   SMTRY2   3  0.000000  1.000000  0.000000       33.96100            
 290   SMTRY3   3  0.000000  0.000000 -1.000000       37.77300            
 290   SMTRY1   4  1.000000  0.000000  0.000000       24.82850            
 290   SMTRY2   4  0.000000 -1.000000  0.000000       33.96100            
 290   SMTRY3   4  0.000000  0.000000 -1.000000        0.00000            
 290                                                                      
 290 REMARK: NULL                                                         
 300                                                                      
 300 BIOMOLECULE: 1                                                       
 300 SEE REMARK 350 FOR THE AUTHOR PROVIDED AND/OR PROGRAM                
 300 GENERATED ASSEMBLY INFORMATION FOR THE STRUCTURE IN                  
 300 THIS ENTRY. THE REMARK MAY ALSO PROVIDE INFORMATION ON               
 300 BURIED SURFACE AREA.                                                 
 350                                                                      
 350 COORDINATES FOR A COMPLETE MULTIMER REPRESENTING THE KNOWN           
 350 BIOLOGICALLY SIGNIFICANT OLIGOMERIZATION STATE OF THE                
 350 MOLECULE CAN BE GENERATED BY APPLYING BIOMT TRANSFORMATIONS          
 350 GIVEN BELOW.  BOTH NON-CRYSTALLOGRAPHIC AND                          
 350 CRYSTALLOGRAPHIC OPERATIONS ARE GIVEN.                               
 350                                                                      
 350 BIOMOLECULE: 1                                                       
 350 AUTHOR DETERMINED BIOLOGICAL UNIT: MONOMERIC                         
 350 SOFTWARE DETERMINED QUATERNARY STRUCTURE: MONOMERIC                  
 350 SOFTWARE USED: PISA                                                  
 350 APPLY THE FOLLOWING TO CHAINS: A                                     
 350   BIOMT1   1  1.000000  0.000000  0.000000        0.00000            
 350   BIOMT2   1  0.000000  1.000000  0.000000        0.00000            
 350   BIOMT3   1  0.000000  0.000000  1.000000        0.00000            
 500                                                                      
 500 GEOMETRY AND STEREOCHEMISTRY                                         
 500 SUBTOPIC: COVALENT BOND LENGTHS                                      
 500                                                                      
 500 THE STEREOCHEMICAL PARAMETERS OF THE FOLLOWING RESIDUES              
 500 HAVE VALUES WHICH DEVIATE FROM EXPECTED VALUES BY MORE               
 500 THAN 6*RMSD (M=MODEL NUMBER; RES=RESIDUE NAME; C=CHAIN               
 500 IDENTIFIER; SSEQ=SEQUENCE NUMBER; I=INSERTION CODE).                 
 500                                                                      
 500 STANDARD TABLE:                                                      
 500 FORMAT: (10X,I3,1X,2(A3,1X,A1,I4,A1,1X,A4,3X),1X,F6.3)               
 500                                                                      
 500 EXPECTED VALUES PROTEIN: ENGH AND HUBER, 1999                        
 500 EXPECTED VALUES NUCLEIC ACID: CLOWNEY ET AL 1996                     
 500                                                                      
 500  M RES CSSEQI ATM1   RES CSSEQI ATM2   DEVIATION                     
 500    GLU A 181   CD    GLU A 181   OE1    -0.069                       
 500                                                                      
 500 REMARK: NULL                                                         
 500                                                                      
 500 GEOMETRY AND STEREOCHEMISTRY                                         
 500 SUBTOPIC: TORSION ANGLES                                             
 500                                                                      
 500 TORSION ANGLES OUTSIDE THE EXPECTED RAMACHANDRAN REGIONS:            
 500 (M=MODEL NUMBER; RES=RESIDUE NAME; C=CHAIN IDENTIFIER;               
 500 SSEQ=SEQUENCE NUMBER; I=INSERTION CODE).                             
 500                                                                      
 500 STANDARD TABLE:                                                      
 500 FORMAT:(10X,I3,1X,A3,1X,A1,I4,A1,4X,F7.2,3X,F7.2)                    
 500                                                                      
 500 EXPECTED VALUES: GJ KLEYWEGT AND TA JONES (1996). PHI/PSI-           
 500 CHOLOGY: RAMACHANDRAN REVISITED. STRUCTURE 4, 1395 - 1400            
 500                                                                      
 500  M RES CSSEQI        PSI       PHI                                   
 500    THR A  66     -148.22   -123.12                                   
 500    CYS A  83     -139.70     46.27                                   
 500    GLU A 181     -169.36   -108.29                                   
 500    ARG A 236     -120.65   -117.01                                   
 500                                                                      
 500 REMARK: NULL                                                         
 610                                                                      
 610 MISSING HETEROATOM                                                   
 610 THE FOLLOWING RESIDUES HAVE MISSING ATOMS (M=MODEL NUMBER;           
 610 RES=RESIDUE NAME; C=CHAIN IDENTIFIER; SSEQ=SEQUENCE NUMBER;          
 610 I=INSERTION CODE):                                                   
 610   M RES C SSEQI                                                      
 610     1RG A  309                                                       
 800                                                                      
 800 SITE                                                                 
 800 SITE_IDENTIFIER: AC1                                                 
 800 EVIDENCE_CODE: SOFTWARE                                              
 800 SITE_DESCRIPTION: BINDING SITE FOR RESIDUE PO4 A 1                   
 800                                                                      
 800 SITE_IDENTIFIER: AC2                                                 
 800 EVIDENCE_CODE: SOFTWARE                                              
 800 SITE_DESCRIPTION: BINDING SITE FOR RESIDUE PO4 A 2                   
 800                                                                      
 800 SITE_IDENTIFIER: AC3                                                 
 800 EVIDENCE_CODE: SOFTWARE                                              
 800 SITE_DESCRIPTION: BINDING SITE FOR RESIDUE 1RG A 308                 
 800                                                                      
 800 SITE_IDENTIFIER: AC4                                                 
 800 EVIDENCE_CODE: SOFTWARE                                              
 800 SITE_DESCRIPTION: BINDING SITE FOR RESIDUE 1RG A 309                 
 900                                                                      
 900 RELATED ENTRIES                                                      
 900 RELATED ID: 3DWZ   RELATED DB: PDB                                   
 900 RELATED ID: 3CG5   RELATED DB: PDB                                   
 900 RELATED ID: 3M6H   RELATED DB: PDB                                   

>  <DBREF>  (1) 
 3M6B A   43   307  UNP    P0C5C1   BLAC_MYCTU      43    307             

>  <SEQRES>  (1) 
   1 A  265  ASP LEU ALA ASP ARG PHE ALA GLU LEU GLU ARG ARG TYR          
   2 A  265  ASP ALA ARG LEU GLY VAL TYR VAL PRO ALA THR GLY THR          
   3 A  265  THR ALA ALA ILE GLU TYR ARG ALA ASP GLU ARG PHE ALA          
   4 A  265  PHE CYS SER THR PHE LYS ALA PRO LEU VAL ALA ALA VAL          
   5 A  265  LEU HIS GLN ASN PRO LEU THR HIS LEU ASP LYS LEU ILE          
   6 A  265  THR TYR THR SER ASP ASP ILE ARG SER ILE SER PRO VAL          
   7 A  265  ALA GLN GLN HIS VAL GLN THR GLY MET THR ILE GLY GLN          
   8 A  265  LEU CYS ASP ALA ALA ILE ARG TYR SER ASP GLY THR ALA          
   9 A  265  ALA ASN LEU LEU LEU ALA ASP LEU GLY GLY PRO GLY GLY          
  10 A  265  GLY THR ALA ALA PHE THR GLY TYR LEU ARG SER LEU GLY          
  11 A  265  ASP THR VAL SER ARG LEU ASP ALA GLU GLU PRO GLU LEU          
  12 A  265  ASN ARG ASP PRO PRO GLY ASP GLU ARG ASP THR THR THR          
  13 A  265  PRO HIS ALA ILE ALA LEU VAL LEU GLN GLN LEU VAL LEU          
  14 A  265  GLY ASN ALA LEU PRO PRO ASP LYS ARG ALA LEU LEU THR          
  15 A  265  ASP TRP MET ALA ARG ASN THR THR GLY ALA LYS ARG ILE          
  16 A  265  ARG ALA GLY PHE PRO ALA ASP TRP LYS VAL ILE ASP LYS          
  17 A  265  THR GLY THR GLY ASP TYR GLY ARG ALA ASN ASP ILE ALA          
  18 A  265  VAL VAL TRP SER PRO THR GLY VAL PRO TYR VAL VAL ALA          
  19 A  265  VAL MET SER ASP ARG ALA GLY GLY GLY TYR ASP ALA GLU          
  20 A  265  PRO ARG GLU ALA LEU LEU ALA GLU ALA ALA THR CYS VAL          
  21 A  265  ALA GLY VAL LEU ALA                                          

>  <HET>  (1) 
 PO4  A   1       5                                                       
 PO4  A   2       5                                                       
 1RG  A 308      33                                                       
 1RG  A 309      18                                                       

>  <HETNAM>  (1) 
     PO4 PHOSPHATE ION                                                    
     1RG (4R,5S)-3-({(3S,5S)-5-[(3-CARBOXYPHENYL)                         
   2 1RG  CARBAMOYL]PYRROLIDIN-3-YL}SULFANYL)-5-[(1S,2R)-1-               
   3 1RG  FORMYL-2-HYDROXYPROPYL]-4-METHYL-4,5-DIHYDRO-1H-                
   4 1RG  PYRROLE-2-CARBOXYLIC ACID                                       

>  <HETSYN>  (1) 
     1RG ERTAPENEM, BOUND FORM PRE-ISOMERIZED                             

>  <FORMUL>  (1) 
   2  PO4    2(O4 P 3-)                                                   
   4  1RG    2(C22 H27 N3 O7 S)                                           
   6  HOH   *297(H2 O)                                                    

>  <HELIX>  (1) 
   1   1 ASP A   43  ASP A   56  1                                  14    
   2   2 CYS A   83  THR A   85  5                                   3    
   3   3 PHE A   86  ASN A   98  1                                  13    
   4   4 PRO A   99  ASP A  104  5                                   6    
   5   5 THR A  110  ILE A  114  5                                   5    
   6   6 VAL A  120  HIS A  124  5                                   5    
   7   7 ILE A  131  TYR A  141  1                                  11    
   8   8 ASP A  143  GLY A  155  1                                  13    
   9   9 PRO A  157  GLY A  159  5                                   3    
  10  10 GLY A  160  LEU A  171  1                                  12    
  11  11 PRO A  183  ARG A  187  5                                   5    
  12  12 THR A  198  LEU A  211  1                                  14    
  13  13 PRO A  216  ARG A  229  1                                  14    
  14  14 ARG A  236  PHE A  241  1                                   6    
  15  15 ARG A  281  GLY A  285  5                                   5    
  16  16 ARG A  291  ALA A  307  1                                  17    

>  <SHEET>  (1) 
   1   A 5 ILE A  72  TYR A  74  0                                        
   2   A 5 ARG A  58  VAL A  63 -1  N  VAL A  61   O  TYR A  74           
   3   A 5 PRO A 272  ASP A 280 -1  O  MET A 278   N  GLY A  60           
   4   A 5 ARG A 258  TRP A 266 -1  N  VAL A 265   O  TYR A 273           
   5   A 5 LYS A 246  GLY A 254 -1  N  GLY A 252   O  ASN A 260           
   1   B 2 PHE A  80  ALA A  81  0                                        
   2   B 2 THR A 196  THR A 197 -1  O  THR A 197   N  PHE A  80           
   1   C 2 LEU A 106  ILE A 107  0                                        
   2   C 2 MET A 129  THR A 130 -1  O  MET A 129   N  ILE A 107           

>  <LINK>  (1) 
       OG  SER A  84                 CAA 1RG A 308     1555   1555  1.37  

>  <CISPEP>  (1) 
   1 GLU A  182    PRO A  183          0         1.85                     

>  <SITE>  (1) 
   1 AC1  7 HOH A  20  ARG A  75  GLU A  78  GLU A 184                    
   2 AC1  7 HOH A 457  HOH A 525  HOH A 544                               
   1 AC2  8 HOH A  16  ARG A  79  ARG A 187  GLU A 193                    
   2 AC2  8 ASP A 255  TYR A 286  HOH A 312  HOH A 351                    
   1 AC3 21 HOH A  21  CYS A  83  SER A  84  LYS A  87                    
   2 AC3 21 ILE A 117  SER A 142  GLU A 182  ASN A 186                    
   3 AC3 21 ARG A 236  LYS A 250  THR A 251  GLY A 252                    
   4 AC3 21 THR A 253  GLU A 289  PRO A 290  GLU A 292                    
   5 AC3 21 1RG A 309  HOH A 358  HOH A 362  HOH A 371                    
   6 AC3 21 HOH A 381                                                     
   1 AC4 11 HOH A   4  HOH A  24  HOH A  25  PRO A 217                    
   2 AC4 11 ASP A 218  GLU A 289  ARG A 291  GLU A 292                    
   3 AC4 11 ALA A 293  1RG A 308  HOH A 360                               

>  <ORIGX1>  (1) 
      1.000000  0.000000  0.000000        0.00000                         

>  <ORIGX2>  (1) 
      0.000000  1.000000  0.000000        0.00000                         

>  <ORIGX3>  (1) 
      0.000000  0.000000  1.000000        0.00000                         

>  <SCALE1>  (1) 
      0.020138  0.000000  0.000000        0.00000                         

>  <SCALE2>  (1) 
      0.000000  0.014723  0.000000        0.00000                         

>  <SCALE3>  (1) 
      0.000000  0.000000  0.013237        0.00000                         

>  <ANISOU>  (1) 
  332  N   SER A  84      555    887    844     -7    -62     14       N  
  333  CA  SER A  84      731   1083    857    -71   -112    -74       C  
  334  C   SER A  84      715   1027    738   -106   -169   -133       C  
  335  O   SER A  84      646   1164    723   -234   -102    -36       O  
  336  CB  SER A  84      874   1173    981   -252   -153   -142       C  
  337  OG  SER A  84     2357   2607   2367    -52   -134   -248       O  
 2000  C   1RG A 308     2163   3077   2265   -105    216    235       C  
 2001  N   1RG A 308     2274   3122   2219   -127    204    216       N  
 2002  O   1RG A 308     1913   2953   2219   -186    424    307       O  
 2003  CA  1RG A 308     2190   3078   2239   -124    212    218       C  
 2004  CB  1RG A 308     2183   3076   2232   -127    193    245       C  
 2005  CD  1RG A 308     2347   3064   2278   -152    215    214       C  
 2006  CG  1RG A 308     2160   3071   2174   -151    185    144       C  
 2007  CAA 1RG A 308     1406   1833   2635   -100   -418    -56       C  
 2008  CAB 1RG A 308     1859   1926   2067   -107     17   -259       C  
 2009  OAC 1RG A 308     1545   1434   1470   -135   -125     70       O  
 2010  CAD 1RG A 308     1844   2079   1759   -236    113   -263       C  
 2011  CAE 1RG A 308     2421   2106   1885   -219    -88   -262       C  
 2012  CAF 1RG A 308     2912   2413   1672   -313    185   -182       C  
 2013  OAG 1RG A 308     2504   2423   2324   -270   -112   -358       O  
 2014  CAH 1RG A 308     2113   2422   1611    -15     71    -52       C  
 2015  CAI 1RG A 308     1732   2467   1378    -85    194     -5       C  
 2016  NAJ 1RG A 308     1536   2199   1144   -171    149    -88       N  
 2017  SAK 1RG A 308     2035   3129   2153    -69     82     51       S  
 2018  CAL 1RG A 308     1237   2244    566   -375   -251    -59       C  
 2019  CAM 1RG A 308     2330   2394    932   -241    721     72       C  
 2020  CAS 1RG A 308     2131   2064   1526    -56    224   -150       C  
 2021  OAT 1RG A 308     3440   2406   1325    390    576    161       O  
 2022  OAU 1RG A 308     2833   3045   1393    612    791     28       O  
 2023  NAX 1RG A 308     2248   3071   2250    -92    215    184       N  
 2024  CAY 1RG A 308     2199   3082   2352    -38      0    172       C  
 2025  CAZ 1RG A 308     2508   3159   2456     36   -167     24       C  
 2026  CBA 1RG A 308     2440   3414   2605     52   -233    -54       C  
 2027  CBB 1RG A 308     2223   2803   2376   -139   -183    140       C  
 2028  CBC 1RG A 308     2387   3117   2351   -171    -69     59       C  
 2029  CBD 1RG A 308     2272   3144   2506   -103   -249     25       C  
 2030  CBE 1RG A 308     2822   3833   2949    207   -128   -211       C  
 2031  OBF 1RG A 308     2688   4174   3154    161   -163   -217       O  
 2032  OBG 1RG A 308     2912   4397   3187    182   -298   -215       O  

>  <MASTER>  (1) 
      304    0    4   16    9    0   13    6 2346    1   62   21          

$$$$
