start_structures/Ligand_Substrate/Ligand_Complex_Stripped/33V_4QHC.pdb
     RDKit          3D

 27 28  0  0  1  0  0  0  0  0999 V2000
   48.7946   51.8800   46.3355 N   0  0  0  0  0  0  0  0  0  0  0  0
   47.4440   51.3864   46.5435 C   0  0  2  0  0  0  0  0  0  0  0  0
   47.4021   49.8902   46.4389 C   0  0  0  0  0  0  0  0  0  0  0  0
   46.4739   49.2696   46.9365 O   0  0  0  0  0  0  0  0  0  0  0  0
   46.5122   52.0083   45.5117 C   0  0  0  0  0  0  0  0  0  0  0  0
   46.1732   53.3155   45.8739 O   0  0  0  0  0  0  0  0  0  0  0  0
   46.2247   52.8709   45.2139 S   0  0  0  0  0  0  0  0  0  0  0  0
   45.5234   51.6084   44.1005 C   0  0  0  0  0  0  0  0  0  0  0  0
   46.4535   51.2280   42.9436 C   0  0  2  0  0  0  0  0  0  0  0  0
   47.7042   50.5880   43.3663 N   0  0  0  0  0  0  0  0  0  0  0  0
   48.6141   51.5578   43.9739 C   0  0  0  0  0  0  0  0  0  0  0  0
   48.6090   51.4445   45.5024 C   0  0  2  0  0  0  0  0  0  0  0  0
   49.2163   50.1084   45.9133 C   0  0  0  0  0  0  0  0  0  0  0  0
   50.5837   50.0992   45.6364 O   0  0  0  0  0  0  0  0  0  0  0  0
   46.6367   52.2911   41.9002 C   0  0  0  0  0  0  0  0  0  0  0  0
   46.3886   52.0253   40.6959 O   0  0  0  0  0  0  0  0  0  0  0  0
   47.0975   53.5566   42.2425 O   0  0  0  0  0  0  0  0  0  0  0  0
   47.2119   51.6310   46.1346 C   0  0  1  0  0  0  0  0  0  0  0  0
   47.3055   52.0579   47.6109 C   0  0  2  0  0  0  0  0  0  0  0  0
   48.0877   51.0959   48.3929 N   0  0  0  0  0  0  0  0  0  0  0  0
   47.2573   50.5105   49.3720 N   0  0  0  0  0  0  0  0  0  0  0  0
   45.8731   50.8857   49.0513 C   0  0  2  0  0  0  0  0  0  0  0  0
   45.9354   52.1364   48.2366 C   0  0  0  0  0  0  0  0  0  0  0  0
   47.6774   51.0599   50.6608 C   0  0  0  0  0  0  0  0  0  0  0  0
   46.8973   50.1427   52.0387 S   0  0  0  0  0  0  0  0  0  0  0  0
   45.2357   49.9685   51.2859 C   0  0  0  0  0  0  0  0  0  0  0  0
   44.9621   51.0640   50.2693 C   0  0  0  0  0  0  0  0  0  0  0  0
  2  1  1  6
  3  2  1  0
  4  3  2  0
  5  2  1  0
  5  6  1  0
  7  8  1  0
 18  7  1  6
  8  9  1  0
  9 10  1  0
  9 15  1  1
 10 11  1  0
 11 12  1  0
 12 13  1  6
 12 18  1  0
 13 14  1  0
 15 16  2  0
 15 17  1  0
 18 19  1  0
 19 20  1  0
 19 23  1  1
 21 20  1  0
 21 22  1  0
 21 24  1  0
 22 23  1  1
 22 27  1  0
 24 25  1  0
 25 26  1  0
 26 27  1  0
M  END
>  <HEADER>  (1) 
    HYDROLASE/HYDROLASE INHIBITOR           28-MAY-14   4QHC              

>  <TITLE>  (1) 
    STRUCTURE OF M.TUBERCULOSIS BETALACTAMASE (BLAC) WITH INHIBITOR HAVING
   2 NOVEL MECHANISM                                                      

>  <COMPND>  (1) 
    MOL_ID: 1;                                                            
   2 MOLECULE: BETA-LACTAMASE;                                            
   3 CHAIN: A;                                                            
   4 FRAGMENT: BETALACTAM DESTROYING ENZYME;                              
   5 SYNONYM: PENICILLINASE;                                              
   6 EC: 3.5.2.6;                                                         
   7 ENGINEERED: YES;                                                     
   8 MUTATION: YES                                                        

>  <SOURCE>  (1) 
    MOL_ID: 1;                                                            
   2 ORGANISM_SCIENTIFIC: MYCOBACTERIUM TUBERCULOSIS;                     
   3 ORGANISM_TAXID: 83332;                                               
   4 STRAIN: ATCC 25618 / H37RV;                                          
   5 GENE: BLAA, BLAC, RV2068C, MTCY49.07C;                               
   6 EXPRESSION_SYSTEM: ESCHERICHIA COLI;                                 
   7 EXPRESSION_SYSTEM_TAXID: 562                                         

>  <KEYWDS>  (1) 
    BETALACTAM, BETALACTAMASE, PENEMS, DRUG RESISTANCE, NOVEL MECHANISM,  
   2 QM/MM, 3-LAYER SANDWICH, DD-PEPTIDASE, BETA-LACTAMASE SUPER FAMILY,  
   3 HYDROLASE-HYDROLASE INHIBITOR COMPLEX                                

>  <EXPDTA>  (1) 
    X-RAY DIFFRACTION                                                     

>  <AUTHOR>  (1) 
    S.HAZRA,J.BLANCHARD                                                   

>  <REVDAT>  (1) 
   2   30-SEP-15 4QHC    1       JRNL                                     
   1   22-JUL-15 4QHC    0                                                

>  <JRNL>  (1) 
      AUTH   S.HAZRA,S.G.KURZ,K.WOLFF,L.NGUYEN,R.A.BONOMO,J.S.BLANCHARD   
      TITL   KINETIC AND STRUCTURAL CHARACTERIZATION OF THE INTERACTION   
      TITL 2 OF 6-METHYLIDENE PENEM 2 WITH THE BETA-LACTAMASE FROM        
      TITL 3 MYCOBACTERIUM TUBERCULOSIS.                                  
      REF    BIOCHEMISTRY                  V.  54  5657 2015              
      REFN                   ISSN 0006-2960                               
      PMID   26237118                                                     
      DOI    10.1021/ACS.BIOCHEM.5B00698                                  

>  <REMARK>  (1) 
   2                                                                      
   2 RESOLUTION.    1.90 ANGSTROMS.                                       
   3                                                                      
   3 REFINEMENT.                                                          
   3   PROGRAM     : PHENIX (PHENIX.REFINE: 1.9_1692)                     
   3   AUTHORS     : PAUL ADAMS,PAVEL AFONINE,VINCENT CHEN,IAN            
   3               : DAVIS,KRESHNA GOPAL,RALF GROSSE-                     
   3               : KUNSTLEVE,LI-WEI HUNG,ROBERT IMMORMINO,              
   3               : TOM IOERGER,AIRLIE MCCOY,ERIK MCKEE,NIGEL            
   3               : MORIARTY,REETAL PAI,RANDY READ,JANE                  
   3               : RICHARDSON,DAVID RICHARDSON,TOD ROMO,JIM             
   3               : SACCHETTINI,NICHOLAS SAUTER,JACOB SMITH,             
   3               : LAURENT STORONI,TOM TERWILLIGER,PETER                
   3               : ZWART                                                
   3                                                                      
   3    REFINEMENT TARGET : ML                                            
   3                                                                      
   3  DATA USED IN REFINEMENT.                                            
   3   RESOLUTION RANGE HIGH (ANGSTROMS) : 1.90                           
   3   RESOLUTION RANGE LOW  (ANGSTROMS) : 26.37                          
   3   MIN(FOBS/SIGMA_FOBS)              : 0.110                          
   3   COMPLETENESS FOR RANGE        (%) : 96.9                           
   3   NUMBER OF REFLECTIONS             : 20193                          
   3                                                                      
   3  FIT TO DATA USED IN REFINEMENT.                                     
   3   R VALUE     (WORKING + TEST SET) : 0.163                           
   3   R VALUE            (WORKING SET) : 0.158                           
   3   FREE R VALUE                     : 0.207                           
   3   FREE R VALUE TEST SET SIZE   (%) : 9.900                           
   3   FREE R VALUE TEST SET COUNT      : 2000                            
   3                                                                      
   3  FIT TO DATA USED IN REFINEMENT (IN BINS).                           
   3   BIN  RESOLUTION RANGE  COMPL.    NWORK NFREE   RWORK  RFREE        
   3     1 26.3714 -  4.5696    0.99     1438   158  0.1440 0.1596        
   3     2  4.5696 -  3.6300    0.93     1272   140  0.1351 0.1502        
   3     3  3.6300 -  3.1720    0.97     1323   146  0.1602 0.2262        
   3     4  3.1720 -  2.8824    1.00     1345   147  0.1645 0.2072        
   3     5  2.8824 -  2.6760    0.99     1328   147  0.1668 0.2285        
   3     6  2.6760 -  2.5184    0.99     1319   144  0.1544 0.2121        
   3     7  2.5184 -  2.3923    0.99     1340   148  0.1453 0.2101        
   3     8  2.3923 -  2.2883    0.99     1294   141  0.1447 0.2228        
   3     9  2.2883 -  2.2002    0.87     1139   126  0.1863 0.2685        
   3    10  2.2002 -  2.1243    0.99     1318   145  0.1584 0.2219        
   3    11  2.1243 -  2.0579    0.99     1294   142  0.1563 0.2236        
   3    12  2.0579 -  1.9991    0.98     1299   143  0.1695 0.2455        
   3    13  1.9991 -  1.9465    0.98     1284   142  0.1859 0.2486        
   3    14  1.9465 -  1.8990    0.90     1200   131  0.2608 0.3327        
   3                                                                      
   3  BULK SOLVENT MODELLING.                                             
   3   METHOD USED        : FLAT BULK SOLVENT MODEL                       
   3   SOLVENT RADIUS     : 1.11                                          
   3   SHRINKAGE RADIUS   : 0.90                                          
   3   K_SOL              : NULL                                          
   3   B_SOL              : NULL                                          
   3                                                                      
   3  ERROR ESTIMATES.                                                    
   3   COORDINATE ERROR (MAXIMUM-LIKELIHOOD BASED)     : 0.210            
   3   PHASE ERROR (DEGREES, MAXIMUM-LIKELIHOOD BASED) : 19.470           
   3                                                                      
   3  B VALUES.                                                           
   3   FROM WILSON PLOT           (A**2) : NULL                           
   3   MEAN B VALUE      (OVERALL, A**2) : NULL                           
   3   OVERALL ANISOTROPIC B VALUE.                                       
   3    B11 (A**2) : NULL                                                 
   3    B22 (A**2) : NULL                                                 
   3    B33 (A**2) : NULL                                                 
   3    B12 (A**2) : NULL                                                 
   3    B13 (A**2) : NULL                                                 
   3    B23 (A**2) : NULL                                                 
   3                                                                      
   3  TWINNING INFORMATION.                                               
   3   FRACTION: NULL                                                     
   3   OPERATOR: NULL                                                     
   3                                                                      
   3  DEVIATIONS FROM IDEAL VALUES.                                       
   3                 RMSD          COUNT                                  
   3   BOND      :  0.011           2096                                  
   3   ANGLE     :  1.531           2870                                  
   3   CHIRALITY :  0.054            328                                  
   3   PLANARITY :  0.007            381                                  
   3   DIHEDRAL  : 14.856            754                                  
   3                                                                      
   3  TLS DETAILS                                                         
   3   NUMBER OF TLS GROUPS  : NULL                                       
   3                                                                      
   3  NCS DETAILS                                                         
   3   NUMBER OF NCS GROUPS : NULL                                        
   3                                                                      
   3  OTHER REFINEMENT REMARKS: NULL                                      
   4                                                                      
   4 4QHC COMPLIES WITH FORMAT V. 3.30, 13-JUL-11                         
 100                                                                      
 100 THIS ENTRY HAS BEEN PROCESSED BY RCSB ON 13-JUN-14.                  
 100 THE RCSB ID CODE IS RCSB086055.                                      
 200                                                                      
 200 EXPERIMENTAL DETAILS                                                 
 200  EXPERIMENT TYPE                : X-RAY DIFFRACTION                  
 200  DATE OF DATA COLLECTION        : NULL                               
 200  TEMPERATURE           (KELVIN) : 100                                
 200  PH                             : 7.5 (4.1)                          
 200  NUMBER OF CRYSTALS USED        : 1                                  
 200                                                                      
 200  SYNCHROTRON              (Y/N) : N                                  
 200  RADIATION SOURCE               : ROTATING ANODE                     
 200  BEAMLINE                       : NULL                               
 200  X-RAY GENERATOR MODEL          : RIGAKU                             
 200  MONOCHROMATIC OR LAUE    (M/L) : M                                  
 200  WAVELENGTH OR RANGE        (A) : 1.5418                             
 200  MONOCHROMATOR                  : GRAPHITE                           
 200  OPTICS                         : NULL                               
 200                                                                      
 200  DETECTOR TYPE                  : IMAGE PLATE                        
 200  DETECTOR MANUFACTURER          : RIGAKU RAXIS IV++                  
 200  INTENSITY-INTEGRATION SOFTWARE : HKL-3000                           
 200  DATA SCALING SOFTWARE          : HKL-3000                           
 200                                                                      
 200  NUMBER OF UNIQUE REFLECTIONS   : 20193                              
 200  RESOLUTION RANGE HIGH      (A) : 1.890                              
 200  RESOLUTION RANGE LOW       (A) : 27.000                             
 200  REJECTION CRITERIA  (SIGMA(I)) : NULL                               
 200                                                                      
 200 OVERALL.                                                             
 200  COMPLETENESS FOR RANGE     (%) : NULL                               
 200  DATA REDUNDANCY                : NULL                               
 200  R MERGE                    (I) : NULL                               
 200  R SYM                      (I) : NULL                               
 200  <I/SIGMA(I)> FOR THE DATA SET  : NULL                               
 200                                                                      
 200 IN THE HIGHEST RESOLUTION SHELL.                                     
 200  HIGHEST RESOLUTION SHELL, RANGE HIGH (A) : NULL                     
 200  HIGHEST RESOLUTION SHELL, RANGE LOW  (A) : NULL                     
 200  COMPLETENESS FOR SHELL     (%) : NULL                               
 200  DATA REDUNDANCY IN SHELL       : NULL                               
 200  R MERGE FOR SHELL          (I) : NULL                               
 200  R SYM FOR SHELL            (I) : NULL                               
 200  <I/SIGMA(I)> FOR SHELL         : NULL                               
 200                                                                      
 200 DIFFRACTION PROTOCOL: SINGLE WAVELENGTH                              
 200 METHOD USED TO DETERMINE THE STRUCTURE: MOLECULAR REPLACEMENT        
 200 SOFTWARE USED: PHENIX                                                
 200 STARTING MODEL: NULL                                                 
 200                                                                      
 200 REMARK: NULL                                                         
 280                                                                      
 280 CRYSTAL                                                              
 280 SOLVENT CONTENT, VS   (%): 45.43                                     
 280 MATTHEWS COEFFICIENT, VM (ANGSTROMS**3/DA): 2.25                     
 280                                                                      
 280 CRYSTALLIZATION CONDITIONS: 0.1 M HEPES, 2M NH4H2PO4, PROTEIN        
 280  CONCENTRATION: 12MGS/ML, VAPOR DIFFUSION, HANGING DROP,             
 280  TEMPERATURE 283K                                                    
 290                                                                      
 290 CRYSTALLOGRAPHIC SYMMETRY                                            
 290 SYMMETRY OPERATORS FOR SPACE GROUP: P 21 21 21                       
 290                                                                      
 290      SYMOP   SYMMETRY                                                
 290     NNNMMM   OPERATOR                                                
 290       1555   X,Y,Z                                                   
 290       2555   -X+1/2,-Y,Z+1/2                                         
 290       3555   -X,Y+1/2,-Z+1/2                                         
 290       4555   X+1/2,-Y+1/2,-Z                                         
 290                                                                      
 290     WHERE NNN -> OPERATOR NUMBER                                     
 290           MMM -> TRANSLATION VECTOR                                  
 290                                                                      
 290 CRYSTALLOGRAPHIC SYMMETRY TRANSFORMATIONS                            
 290 THE FOLLOWING TRANSFORMATIONS OPERATE ON THE ATOM/HETATM             
 290 RECORDS IN THIS ENTRY TO PRODUCE CRYSTALLOGRAPHICALLY                
 290 RELATED MOLECULES.                                                   
 290   SMTRY1   1  1.000000  0.000000  0.000000        0.00000            
 290   SMTRY2   1  0.000000  1.000000  0.000000        0.00000            
 290   SMTRY3   1  0.000000  0.000000  1.000000        0.00000            
 290   SMTRY1   2 -1.000000  0.000000  0.000000       24.84950            
 290   SMTRY2   2  0.000000 -1.000000  0.000000        0.00000            
 290   SMTRY3   2  0.000000  0.000000  1.000000       37.62350            
 290   SMTRY1   3 -1.000000  0.000000  0.000000        0.00000            
 290   SMTRY2   3  0.000000  1.000000  0.000000       34.16500            
 290   SMTRY3   3  0.000000  0.000000 -1.000000       37.62350            
 290   SMTRY1   4  1.000000  0.000000  0.000000       24.84950            
 290   SMTRY2   4  0.000000 -1.000000  0.000000       34.16500            
 290   SMTRY3   4  0.000000  0.000000 -1.000000        0.00000            
 290                                                                      
 290 REMARK: NULL                                                         
 300                                                                      
 300 BIOMOLECULE: 1                                                       
 300 SEE REMARK 350 FOR THE AUTHOR PROVIDED AND/OR PROGRAM                
 300 GENERATED ASSEMBLY INFORMATION FOR THE STRUCTURE IN                  
 300 THIS ENTRY. THE REMARK MAY ALSO PROVIDE INFORMATION ON               
 300 BURIED SURFACE AREA.                                                 
 350                                                                      
 350 COORDINATES FOR A COMPLETE MULTIMER REPRESENTING THE KNOWN           
 350 BIOLOGICALLY SIGNIFICANT OLIGOMERIZATION STATE OF THE                
 350 MOLECULE CAN BE GENERATED BY APPLYING BIOMT TRANSFORMATIONS          
 350 GIVEN BELOW.  BOTH NON-CRYSTALLOGRAPHIC AND                          
 350 CRYSTALLOGRAPHIC OPERATIONS ARE GIVEN.                               
 350                                                                      
 350 BIOMOLECULE: 1                                                       
 350 AUTHOR DETERMINED BIOLOGICAL UNIT: MONOMERIC                         
 350 SOFTWARE DETERMINED QUATERNARY STRUCTURE: MONOMERIC                  
 350 SOFTWARE USED: PISA                                                  
 350 APPLY THE FOLLOWING TO CHAINS: A                                     
 350   BIOMT1   1  1.000000  0.000000  0.000000        0.00000            
 350   BIOMT2   1  0.000000  1.000000  0.000000        0.00000            
 350   BIOMT3   1  0.000000  0.000000  1.000000        0.00000            
 465                                                                      
 465 MISSING RESIDUES                                                     
 465 THE FOLLOWING RESIDUES WERE NOT LOCATED IN THE                       
 465 EXPERIMENT. (M=MODEL NUMBER; RES=RESIDUE NAME; C=CHAIN               
 465 IDENTIFIER; SSSEQ=SEQUENCE NUMBER; I=INSERTION CODE.)                
 465                                                                      
 465   M RES C SSSEQI                                                     
 465     ALA A    42                                                      
 500                                                                      
 500 GEOMETRY AND STEREOCHEMISTRY                                         
 500 SUBTOPIC: CLOSE CONTACTS IN SAME ASYMMETRIC UNIT                     
 500                                                                      
 500 THE FOLLOWING ATOMS ARE IN CLOSE CONTACT.                            
 500                                                                      
 500  ATM1  RES C  SSEQI   ATM2  RES C  SSEQI           DISTANCE          
 500   OD1  ASP A   287     O    HOH A   604              2.11            
 500   O    HOH A   644     O    HOH A   645              2.15            
 500                                                                      
 500 REMARK: NULL                                                         
 500                                                                      
 500 GEOMETRY AND STEREOCHEMISTRY                                         
 500 SUBTOPIC: TORSION ANGLES                                             
 500                                                                      
 500 TORSION ANGLES OUTSIDE THE EXPECTED RAMACHANDRAN REGIONS:            
 500 (M=MODEL NUMBER; RES=RESIDUE NAME; C=CHAIN IDENTIFIER;               
 500 SSEQ=SEQUENCE NUMBER; I=INSERTION CODE).                             
 500                                                                      
 500 STANDARD TABLE:                                                      
 500 FORMAT:(10X,I3,1X,A3,1X,A1,I4,A1,4X,F7.2,3X,F7.2)                    
 500                                                                      
 500 EXPECTED VALUES: GJ KLEYWEGT AND TA JONES (1996). PHI/PSI-           
 500 CHOLOGY: RAMACHANDRAN REVISITED. STRUCTURE 4, 1395 - 1400            
 500                                                                      
 500  M RES CSSEQI        PSI       PHI                                   
 500    CYS A  83     -145.20     45.09                                   
 500    SER A 118       65.78   -154.50                                   
 500    GLU A 181     -169.61   -102.62                                   
 500    ARG A 236     -116.55   -114.37                                   
 500                                                                      
 500 REMARK: NULL                                                         
 800                                                                      
 800 SITE                                                                 
 800 SITE_IDENTIFIER: AC1                                                 
 800 EVIDENCE_CODE: SOFTWARE                                              
 800 SITE_DESCRIPTION: BINDING SITE FOR RESIDUE 33V A 401                 
 800                                                                      
 800 SITE_IDENTIFIER: AC2                                                 
 800 EVIDENCE_CODE: SOFTWARE                                              
 800 SITE_DESCRIPTION: BINDING SITE FOR RESIDUE PO4 A 402                 
 800                                                                      
 800 SITE_IDENTIFIER: AC3                                                 
 800 EVIDENCE_CODE: SOFTWARE                                              
 800 SITE_DESCRIPTION: BINDING SITE FOR RESIDUE PO4 A 403                 
 900                                                                      
 900 RELATED ENTRIES                                                      
 900 RELATED ID: 4DF6   RELATED DB: PDB                                   
 900 CRYSTAL STRUCTURE OF M.TUBERCULOSIS BLAC COMPLXED WITH               
 900 NXL104                                                               
 900 RELATED ID: 4Q8I   RELATED DB: PDB                                   
 900 CRYSTAL STRUCTURE OF M.TUBERCULOSIS BLAC COVALENTLY                  
 900 COMPLEXED WITH TEBIPENEM                                             
 900 RELATED ID: 4QB8   RELATED DB: PDB                                   
 900 CRYSTAL STRUCTURE OF M.TUBERCULOSIS BLAC FORMING MM COMPLEX          
 900 WITH TEBIPENEM                                                       

>  <DBREF>  (1) 
 4QHC A   42   307  UNP    P9WKD3   BLAC_MYCTU      42    307             

>  <SEQRES>  (1) 
   1 A  266  ALA ASP LEU ALA ASP ARG PHE ALA GLU LEU GLU ARG ARG          
   2 A  266  TYR ASP ALA ARG LEU GLY VAL TYR VAL PRO ALA THR GLY          
   3 A  266  THR THR ALA ALA ILE GLU TYR ARG ALA ASP GLU ARG PHE          
   4 A  266  ALA PHE CYS SER THR PHE LYS ALA PRO LEU VAL ALA ALA          
   5 A  266  VAL LEU HIS GLN ASN PRO LEU THR HIS LEU ASP LYS LEU          
   6 A  266  ILE THR TYR THR SER ASP ASP ILE ARG SER ILE SER PRO          
   7 A  266  VAL ALA GLN GLN HIS VAL GLN THR GLY MET THR ILE GLY          
   8 A  266  GLN LEU CYS ASP ALA ALA ILE ARG TYR SER ASP GLY THR          
   9 A  266  ALA ALA ASN LEU LEU LEU ALA ASP LEU GLY GLY PRO GLY          
  10 A  266  GLY GLY THR ALA ALA PHE THR GLY TYR LEU ARG SER LEU          
  11 A  266  GLY ASP THR VAL SER ARG LEU ASP ALA GLU GLU PRO GLU          
  12 A  266  LEU ASN ARG ASP PRO PRO GLY ASP GLU ARG ASP THR THR          
  13 A  266  THR PRO HIS ALA ILE ALA LEU VAL LEU GLN GLN LEU VAL          
  14 A  266  LEU GLY ASN ALA LEU PRO PRO ASP LYS ARG ALA LEU LEU          
  15 A  266  THR ASP TRP MET ALA ARG ASN THR THR GLY ALA LYS ARG          
  16 A  266  ILE ARG ALA GLY PHE PRO ALA ASP TRP LYS VAL ILE ASP          
  17 A  266  LYS THR GLY THR GLY ASP TYR GLY ARG ALA ASN ASP ILE          
  18 A  266  ALA VAL VAL TRP SER PRO THR GLY VAL PRO TYR VAL VAL          
  19 A  266  ALA VAL MET SER ASP ARG ALA GLY GLY GLY TYR ASP ALA          
  20 A  266  GLU PRO ARG GLU ALA LEU LEU ALA GLU ALA ALA THR CYS          
  21 A  266  VAL ALA GLY VAL LEU ALA                                      

>  <HET>  (1) 
 33V  A 401      43                                                       
 PO4  A 402       5                                                       
 PO4  A 403       5                                                       

>  <HETNAM>  (1) 
     33V (3R,6R,7S)-7-[(2R,3AR)-HEXAHYDROPYRAZOLO[1,5-C][1,               
   2 33V  3]THIAZIN-2-YL]-6-(HYDROXYMETHYL)-1,4-THIAZEPANE-3-             
   3 33V  CARBOXYLIC ACID                                                 
     PO4 PHOSPHATE ION                                                    

>  <FORMUL>  (1) 
   2  33V    C13 H23 N3 O3 S2                                             
   3  PO4    2(O4 P 3-)                                                   
   5  HOH   *183(H2 O)                                                    

>  <HELIX>  (1) 
   1   1 ASP A   43  ASP A   56  1                                  14    
   2   2 CYS A   83  THR A   85  5                                   3    
   3   3 PHE A   86  ASN A   98  1                                  13    
   4   4 PRO A   99  ASP A  104  5                                   6    
   5   5 THR A  110  ILE A  114  5                                   5    
   6   6 VAL A  120  HIS A  124  5                                   5    
   7   7 ILE A  131  TYR A  141  1                                  11    
   8   8 ASP A  143  GLY A  155  1                                  13    
   9   9 GLY A  156  GLY A  159  5                                   4    
  10  10 GLY A  160  LEU A  171  1                                  12    
  11  11 PRO A  183  ARG A  187  5                                   5    
  12  12 THR A  198  LEU A  211  1                                  14    
  13  13 PRO A  216  ARG A  229  1                                  14    
  14  14 ARG A  236  PHE A  241  1                                   6    
  15  15 ARG A  281  GLY A  285  5                                   5    
  16  16 ARG A  291  ALA A  307  1                                  17    

>  <SHEET>  (1) 
   1   A 5 ILE A  72  TYR A  74  0                                        
   2   A 5 ARG A  58  VAL A  63 -1  N  VAL A  63   O  ILE A  72           
   3   A 5 PRO A 272  ASP A 280 -1  O  MET A 278   N  GLY A  60           
   4   A 5 ALA A 259  TRP A 266 -1  N  ASP A 261   O  VAL A 277           
   5   A 5 LYS A 246  THR A 253 -1  N  GLY A 252   O  ASN A 260           
   1   B 2 PHE A  80  ALA A  81  0                                        
   2   B 2 THR A 196  THR A 197 -1  O  THR A 197   N  PHE A  80           
   1   C 2 LEU A 106  ILE A 107  0                                        
   2   C 2 MET A 129  THR A 130 -1  O  MET A 129   N  ILE A 107           

>  <CISPEP>  (1) 
   1 GLU A  182    PRO A  183          0        -2.64                     

>  <SITE>  (1) 
   1 AC1 18 CYS A  83  SER A  84  SER A 116  ILE A 117                    
   2 AC1 18 GLU A 182  ASN A 186  GLU A 193  GLY A 252                    
   3 AC1 18 THR A 253  PO4 A 403  HOH A 501  HOH A 504                    
   4 AC1 18 HOH A 505  HOH A 549  HOH A 645  HOH A 646                    
   5 AC1 18 HOH A 666  HOH A 677                                          
   1 AC2  6 PRO A 216  ASP A 218  LYS A 219  LYS A 235                    
   2 AC2  6 HOH A 614  HOH A 636                                          
   1 AC3  9 SER A 142  THR A 232  LYS A 250  THR A 251                    
   2 AC3  9 GLY A 252  THR A 253  33V A 401  HOH A 610                    
   3 AC3  9 HOH A 677                                                     

>  <ORIGX1>  (1) 
      1.000000  0.000000  0.000000        0.00000                         

>  <ORIGX2>  (1) 
      0.000000  1.000000  0.000000        0.00000                         

>  <ORIGX3>  (1) 
      0.000000  0.000000  1.000000        0.00000                         

>  <SCALE1>  (1) 
      0.020121  0.000000  0.000000        0.00000                         

>  <SCALE2>  (1) 
      0.000000  0.014635  0.000000        0.00000                         

>  <SCALE3>  (1) 
      0.000000  0.000000  0.013290        0.00000                         

>  <MASTER>  (1) 
      268    0    3   16    9    0   10    6 2202    1   53   21          

$$$$
